26
0008noc.xyz
C   0.0001270000   0.7622750000   0.0000000000
C   -0.0001270000   -0.7622750000   0.0000000000
C   1.4005600000   1.3639510000   0.0000000000
C   -1.4005600000   -1.3639510000   0.0000000000
H   -0.5483350000   1.1232240000   0.8756670000
H   -0.5483350000   1.1232240000   -0.8756670000
H   0.5483350000   -1.1232240000   0.8756670000
H   0.5483350000   -1.1232240000   -0.8756670000
C   1.4005600000   2.8886130000   0.0000000000
C   -1.4005600000   -2.8886130000   0.0000000000
H   1.9498930000   1.0037730000   -0.8756240000
H   1.9498930000   1.0037730000   0.8756240000
H   -1.9498930000   -1.0037730000   -0.8756240000
H   -1.9498930000   -1.0037730000   0.8756240000
C   2.8071160000   3.4761310000   0.0000000000
C   -2.8071160000   -3.4761310000   0.0000000000
H   0.8513920000   3.2460940000   0.8749630000
H   0.8513920000   3.2460940000   -0.8749630000
H   -0.8513920000   -3.2460940000   0.8749630000
H   -0.8513920000   -3.2460940000   -0.8749630000
H   2.7884900000   4.5653920000   0.0000000000
H   -2.7884900000   -4.5653920000   0.0000000000
H   3.3629520000   3.1507160000   -0.8804370000
H   3.3629520000   3.1507160000   0.8804370000
H   -3.3629520000   -3.1507160000   -0.8804370000
H   -3.3629520000   -3.1507160000   0.8804370000
