23
0013dim.xyz
C   -2.4590090000   0.8446320000   0.4441180000
C   -1.2743660000   -0.0998730000   0.2573510000
C   0.0000000000   0.7075840000   0.0000000000
H   0.1772780000   1.3660240000   0.8584850000
H   -1.1439060000   -0.6626320000   1.1865700000
C   -1.5598310000   -1.0902700000   -0.8686660000
H   -2.6494370000   1.4005620000   -0.4769650000
H   -2.2689720000   1.5685400000   1.2375720000
H   -3.3671180000   0.2958080000   0.6956130000
C   1.2743660000   -0.0998730000   -0.2573510000
H   1.1439070000   -0.6626320000   -1.1865700000
C   1.5598310000   -1.0902700000   0.8686660000
C   2.4590090000   0.8446320000   -0.4441170000
H   2.6494370000   1.4005620000   0.4769650000
H   2.2689730000   1.5685390000   -1.2375720000
H   3.3671190000   0.2958080000   -0.6956120000
H   -0.1772780000   1.3660240000   -0.8584850000
H   -2.5106210000   -1.5991840000   -0.7063670000
H   -0.7843720000   -1.8516820000   -0.9534900000
H   -1.6209190000   -0.5671240000   -1.8266280000
H   2.5106200000   -1.5991850000   0.7063680000
H   0.7843710000   -1.8516810000   0.9534900000
H   1.6209180000   -0.5671240000   1.8266280000
