13
0026cyc.xyz
C   -0.2913620000   -1.1914530000   0.0000000000
C   0.0752550000   -0.3309170000   1.2263840000
C   0.0752550000   1.0682190000   0.6632140000
C   0.0752550000   1.0682190000   -0.6632140000
C   0.0752550000   -0.3309170000   -1.2263840000
H   -1.3672060000   -1.3674210000   0.0000000000
H   1.0669260000   -0.5799970000   1.6162460000
H   -0.6275170000   -0.4587350000   2.0499180000
H   0.1147540000   1.9539070000   1.2828390000
H   0.1147540000   1.9539070000   -1.2828390000
H   1.0669260000   -0.5799970000   -1.6162460000
H   -0.6275170000   -0.4587350000   -2.0499180000
H   0.2009450000   -2.1618270000   0.0000000000
