16
0034hex.xyz
C   2.2887200000   -2.2717580000   0.0000000000
C   1.2036850000   -1.7664470000   0.0000000000
H   3.2493650000   -2.7258320000   0.0000000000
C   -0.1031920000   -1.1150840000   0.0000000000
C   0.0000000000   0.4135850000   0.0000000000
H   -0.6667360000   -1.4447270000   0.8761820000
H   -0.6667360000   -1.4447270000   -0.8761820000
C   -1.3682310000   1.0822700000   0.0000000000
H   0.5705030000   0.7317670000   0.8754850000
H   0.5705030000   0.7317670000   -0.8754850000
C   -1.2678720000   2.6028800000   0.0000000000
H   -1.9326380000   0.7495480000   -0.8752930000
H   -1.9326380000   0.7495480000   0.8752930000
H   -2.2521190000   3.0695220000   0.0000000000
H   -0.7290850000   2.9552310000   0.8805970000
H   -0.7290850000   2.9552310000   -0.8805970000
