18
0041nap.xyz
C   0.0000000000   1.3948040000   1.2387460000
C   0.0000000000   -1.3948040000   1.2387460000
C   0.0000000000   0.7096100000   0.0000090000
C   0.0000000000   0.7061860000   2.4187260000
C   0.0000000000   -0.7061860000   2.4187260000
C   0.0000000000   -0.7096100000   0.0000090000
C   0.0000000000   1.3948450000   -1.2387850000
C   0.0000000000   -1.3948450000   -1.2387850000
C   0.0000000000   0.7062390000   -2.4186910000
C   0.0000000000   -0.7062390000   -2.4186910000
H   0.0000000000   -2.4775750000   1.2340080000
H   0.0000000000   2.4775750000   1.2340080000
H   0.0000000000   2.4776170000   -1.2339520000
H   0.0000000000   1.2409260000   3.3586530000
H   0.0000000000   -1.2409260000   3.3586530000
H   0.0000000000   -2.4776170000   -1.2339520000
H   0.0000000000   1.2407710000   -3.3587360000
H   0.0000000000   -1.2407710000   -3.3587360000
