10
0046eth.xyz
C   -0.6782000000   0.5940230000   -0.2907230000
O   -1.3777550000   -0.5924830000   0.0534730000
H   -1.6284120000   -0.5522570000   0.9789950000
H   -0.6251880000   0.6030870000   -1.3788910000
H   -1.2178870000   1.4863850000   0.0389800000
C   0.7216050000   0.5682040000   0.2869070000
O   1.4316580000   -0.5612260000   -0.1617620000
H   0.6659760000   0.5829130000   1.3839830000
H   1.2776260000   1.4510590000   -0.0300860000
H   0.8362330000   -1.3148770000   -0.1037730000
