15
0063die.xyz
O   0.0000000000   0.0000000000   0.8206110000
C   0.0000000000   1.1875190000   0.0561660000
C   1.4044080000   1.5997260000   -0.3527410000
H   -0.4486220000   1.9560230000   0.6859070000
H   -0.6397820000   1.0753110000   -0.8264960000
H   1.3801870000   2.5332810000   -0.9153070000
H   2.0227450000   1.7418290000   0.5323970000
H   1.8731610000   0.8412730000   -0.9794950000
C   0.0000000000   -1.1875190000   0.0561660000
C   -1.4044080000   -1.5997260000   -0.3527410000
H   0.4486220000   -1.9560230000   0.6859070000
H   0.6397820000   -1.0753110000   -0.8264960000
H   -1.3801870000   -2.5332810000   -0.9153070000
H   -2.0227450000   -1.7418290000   0.5323970000
H   -1.8731610000   -0.8412730000   -0.9794950000
