16
0073pen.xyz
C   -0.8691130000   2.7248510000   0.0000000000
C   -1.2318650000   1.2449380000   0.0000000000
C   0.0000000000   0.3471620000   0.0000000000
H   0.6210790000   0.5674610000   0.8710540000
H   -1.8462790000   1.0153120000   0.8748720000
H   -1.8462790000   1.0153120000   -0.8748720000
H   -0.2767830000   2.9783960000   -0.8801270000
H   -0.2767830000   2.9783960000   0.8801270000
H   -1.7570180000   3.3559470000   0.0000000000
C   -0.3549320000   -1.1297600000   0.0000000000
H   -0.9674040000   -1.3950270000   -0.8694690000
H   -0.9674040000   -1.3950270000   0.8694690000
C   0.8359280000   -2.0465580000   0.0000000000
O   1.9765570000   -1.6753330000   0.0000000000
H   0.6032290000   -3.1293600000   0.0000000000
H   0.6210790000   0.5674610000   -0.8710540000
