13
0076but.xyz
C   2.0029470000   -0.0209220000   0.0082030000
C   0.6759980000   -0.7592190000   -0.0099420000
C   -0.5225480000   0.1684980000   -0.0034590000
O   -0.3986510000   1.3662920000   -0.0038940000
H   0.5876940000   -1.4019310000   -0.8908320000
H   0.5781790000   -1.4310730000   0.8477490000
H   2.0811900000   0.6051400000   0.8950000000
H   2.0890430000   0.6332260000   -0.8572290000
H   2.8360800000   -0.7213480000   0.0009240000
C   -1.8817050000   -0.4911890000   0.0057400000
H   -1.9912250000   -1.0980200000   0.9057030000
H   -1.9786130000   -1.1631930000   -0.8477990000
H   -2.6613000000   0.2638510000   -0.0256160000
