11
0087pro.xyz
O   1.1714120000   0.8190580000   0.0000000000
C   0.0000000000   0.5673630000   0.0000000000
C   -0.6051060000   -0.8096370000   0.0000000000
C   0.4480960000   -1.9033480000   0.0000000000
O   -0.9458450000   1.5277830000   0.0000000000
H   -0.4924500000   2.3798960000   0.0000000000
H   -1.2610950000   -0.8744900000   0.8702490000
H   -1.2610950000   -0.8744900000   -0.8702490000
H   -0.0219150000   -2.8847840000   0.0000000000
H   1.0870420000   -1.8235650000   0.8772900000
H   1.0870420000   -1.8235650000   -0.8772900000
