17
0125dim.xyz
C   -1.1509670000   -0.2641440000   0.0000040000
C   1.1509660000   -0.2641450000   0.0000040000
C   -1.1931570000   1.1275360000   -0.0000130000
C   1.1931570000   1.1275360000   -0.0000130000
C   0.0000010000   1.8295880000   -0.0000220000
C   -2.4042780000   -1.0912140000   0.0000120000
C   2.4042780000   -1.0912140000   0.0000120000
N   0.0000000000   -0.9361150000   0.0000120000
H   0.0000000000   2.9116580000   -0.0000350000
H   -2.1440280000   1.6418780000   -0.0000200000
H   2.1440290000   1.6418770000   -0.0000200000
H   -2.4215890000   -1.7370190000   -0.8774200000
H   -2.4215830000   -1.7370100000   0.8774510000
H   -3.2967790000   -0.4691060000   0.0000120000
H   2.4215890000   -1.7370190000   -0.8774200000
H   3.2967790000   -0.4691050000   0.0000120000
H   2.4215830000   -1.7370110000   0.8774510000
