6
0126eth.xyz
C   0.0000000000   0.2821960000   0.0000000000
C   -0.0001230000   -1.1746100000   0.0000000000
H   1.0225140000   -1.5447990000   0.0000000000
H   -0.5112760000   -1.5447310000   0.8857750000
H   -0.5112760000   -1.5447310000   -0.8857750000
N   0.0001110000   1.4269630000   0.0000000000
