14
0147met.xyz
C   0.0000000000   0.3312160000   0.0000000000
C   1.1458230000   -0.6660230000   0.0000000000
O   -1.2158810000   -0.3696050000   0.0000000000
N   2.4695430000   -0.0590100000   0.0000000000
C   -2.3311880000   0.4814860000   0.0000000000
H   2.6066030000   0.5237570000   0.8158350000
H   -3.2234020000   -0.1399420000   0.0000000000
H   -2.3397090000   1.1212850000   -0.8893010000
H   -2.3397090000   1.1212850000   0.8893010000
H   0.0659480000   0.9799550000   -0.8859240000
H   1.0550790000   -1.3101070000   -0.8751800000
H   0.0659480000   0.9799550000   0.8859240000
H   1.0550790000   -1.3101070000   0.8751800000
H   2.6066030000   0.5237570000   -0.8158350000
