8
0206tri.xyz
C   0.6074750000   -0.4080780000   0.0000000000
C   -0.1477160000   0.9525270000   0.0000000000
F   1.9112030000   -0.1048410000   0.0000000000
Cl   -1.8915330000   0.7694660000   0.0000000000
Cl   0.2345520000   -1.3187040000   1.4532600000
Cl   0.2345520000   -1.3187040000   -1.4532600000
F   0.2345520000   1.6351050000   1.0753920000
F   0.2345520000   1.6351050000   -1.0753920000
