16
0223die.xyz
S   1.0195770000   -0.0085640000   -0.5807830000
S   -1.0195770000   0.0085640000   -0.5807830000
C   -1.4061520000   1.2396900000   0.7026040000
C   1.4061520000   -1.2396900000   0.7026040000
H   -2.4845880000   1.1437050000   0.8408070000
H   -0.9280360000   0.9274970000   1.6303830000
C   -1.0195770000   2.6569370000   0.3210850000
H   2.4845880000   -1.1437050000   0.8408070000
H   0.9280360000   -0.9274970000   1.6303830000
C   1.0195770000   -2.6569370000   0.3210850000
H   -1.2654660000   3.3497490000   1.1266710000
H   0.0512830000   2.7204300000   0.1319000000
H   -1.5460220000   2.9697560000   -0.5793630000
H   1.2654660000   -3.3497490000   1.1266710000
H   -0.0512830000   -2.7204300000   0.1319000000
H   1.5460220000   -2.9697560000   -0.5793630000
