7
0228met.xyz
N   -0.7470830000   0.0000000000   -0.1198480000
H   -1.1512880000   -0.8126460000   0.3254390000
H   -1.1512880000   0.8126460000   0.3254390000
C   0.7061180000   0.0000000000   0.0177080000
H   1.0709170000   0.0000000000   1.0501240000
H   1.1122670000   -0.8768990000   -0.4841570000
H   1.1122670000   0.8768990000   -0.4841570000
