8
0405hex.xyz
C   -0.7709780000   -0.0001800000   -0.0000110000
C   0.7709780000   0.0001800000   0.0000110000
F   -1.2151590000   0.7273220000   -1.0111080000
F   -1.2144440000   0.5120310000   1.1357680000
F   -1.2142220000   -1.2399310000   -0.1240820000
F   1.2151590000   -0.7273200000   1.0111100000
F   1.2142220000   1.2399310000   0.1240790000
F   1.2144430000   -0.5120330000   -1.1357670000
