15
0413clt.xyz
C   -0.0885570000   0.9353000000   -0.0000030000
C   0.3565400000   -0.3852990000   0.0000090000
C   -1.4665000000   1.1370090000   -0.0000490000
C   -0.5173800000   -1.4600170000   -0.0000270000
C   -2.3596930000   0.0760970000   -0.0000820000
C   -1.8842230000   -1.2263370000   -0.0000730000
Cl   2.0664380000   -0.7080180000   0.0000750000
C   0.8697610000   2.0891230000   0.0000370000
H   -1.8394190000   2.1533250000   -0.0000590000
H   -0.1227660000   -2.4660480000   -0.0000180000
H   -3.4237980000   0.2671170000   -0.0001170000
H   -2.5700910000   -2.0619150000   -0.0001010000
H   1.5181890000   2.0575900000   0.8761000000
H   0.3304050000   3.0334690000   -0.0000460000
H   1.5183460000   2.0575230000   -0.8759070000
