10
0503dim.xyz
O   -0.0000010000   1.4627320000   0.3849200000
S   0.0000000000   0.2313330000   -0.4417550000
C   -1.3425120000   -0.7945850000   0.1823070000
H   -1.3200000000   -1.7677450000   -0.3051430000
H   -1.2328480000   -0.8881330000   1.2615350000
H   -2.2687630000   -0.2782120000   -0.0558760000
C   1.3425120000   -0.7945830000   0.1823070000
H   1.3200010000   -1.7677440000   -0.3051430000
H   2.2687640000   -0.2782100000   -0.0558760000
H   1.2328500000   -0.8881310000   1.2615350000
