12
0505per.xyz
C   -1.3693420000   -0.2002790000   0.0000010000
C   -0.5112640000   -1.2859380000   0.0000000000
C   0.8582440000   -1.0857800000   0.0000010000
C   1.3693420000   0.2002790000   -0.0000010000
C   0.5112640000   1.2859380000   0.0000000000
C   -0.8582440000   1.0857800000   -0.0000010000
F   2.6775220000   0.3916110000   0.0000000000
F   1.6784300000   -2.1227330000   0.0000000000
F   -1.0000000000   -2.5144200000   0.0000000000
F   -2.6775220000   -0.3916110000   0.0000000000
F   -1.6784310000   2.1227320000   0.0000000000
F   1.0000000000   2.5144200000   0.0000010000
