16
0533ben.xyz
C   1.8699920000   -0.9965980000   -0.0095620000
C   2.2922750000   0.3275380000   -0.0044980000
C   1.3517910000   1.3454090000   0.0056490000
C   -0.0067170000   1.0496340000   0.0119440000
C   -0.4313650000   -0.2714070000   0.0080480000
C   0.5164040000   -1.2912330000   -0.0041400000
H   -0.7423260000   1.8406460000   0.0192330000
H   1.6739130000   2.3782990000   0.0084880000
H   3.3484220000   0.5604200000   -0.0094770000
H   2.5957390000   -1.7986480000   -0.0194090000
H   0.1889940000   -2.3249740000   -0.0100060000
C   -1.8938770000   -0.6307370000   0.0230630000
H   -2.1086860000   -1.2849090000   -0.8291400000
H   -2.1115420000   -1.1952290000   0.9366660000
O   -2.6788820000   0.5410160000   -0.0369990000
H   -3.6044780000   0.3006300000   0.0166150000
