19
0543bro.xyz
C   0.9036780000   1.3445450000   -0.0041230000
C   1.4502970000   0.0711300000   -0.0016190000
C   0.6299930000   -1.0430780000   -0.0051750000
C   -0.7505160000   -0.8999610000   -0.0110130000
C   -1.3117070000   0.3760490000   -0.0131230000
C   -0.4708570000   1.4898150000   -0.0099270000
N   -2.6950890000   0.6172480000   -0.0182220000
C   -3.7286270000   -0.2883580000   -0.0054420000
C   -5.0967640000   0.3561140000   0.0291680000
O   -3.5716760000   -1.4865130000   -0.0066980000
Br   3.3320930000   -0.1395480000   0.0062690000
H   -2.9604580000   1.5884450000   -0.0175180000
H   -5.8448100000   -0.4143780000   -0.1226790000
H   -5.1959960000   1.1213300000   -0.7402710000
H   -5.2591290000   0.8250270000   1.0002320000
H   -1.3862650000   -1.7686660000   -0.0140820000
H   -0.8980700000   2.4853070000   -0.0115430000
H   1.0628320000   -2.0332640000   -0.0035050000
H   1.5446810000   2.2141980000   -0.0013940000
