22
0549tri.xyz
C   0.6017980000   2.6136060000   -0.0022150000
C   1.6227380000   1.6711830000   -0.0083890000
C   1.2830260000   0.3309060000   -0.0069440000
C   -0.0385890000   -0.0981670000   0.0011430000
C   -1.0534220000   0.8533400000   0.0073310000
C   -0.7184000000   2.2110050000   0.0056540000
N   -2.4175860000   0.5290680000   0.0144430000
C   -3.0056230000   -0.7152710000   0.0102440000
C   -4.5168170000   -0.6718700000   -0.0224070000
O   -2.3817310000   -1.7491100000   0.0156150000
C   2.3496540000   -0.7289470000   -0.0029670000
F   3.5779490000   -0.2110450000   -0.0896350000
F   2.2045090000   -1.5781870000   -1.0258110000
F   2.3089900000   -1.4627660000   1.1153760000
H   -3.0459660000   1.3156260000   0.0130960000
H   -4.8937070000   -1.6694530000   0.1750190000
H   -4.8531110000   -0.3534070000   -1.0095330000
H   -4.9132540000   0.0246270000   0.7155750000
H   -0.2760210000   -1.1493750000   0.0015320000
H   -1.5080320000   2.9526990000   0.0098640000
H   2.6589060000   1.9738040000   -0.0155280000
H   0.8389130000   3.6681460000   -0.0040980000
