18
0551flu.xyz
C   -2.0989630000   1.6446790000   -0.0513180000
C   -2.7427470000   0.4159470000   -0.0194910000
C   -1.9525240000   -0.7140810000   0.0294420000
C   -0.5718400000   -0.6853150000   0.0473690000
C   0.0541480000   0.5581310000   0.0142540000
C   -0.7184240000   1.7214670000   -0.0349910000
N   1.4464010000   0.7143830000   0.0477690000
C   2.4080130000   -0.2717230000   -0.0292580000
N   3.6964420000   0.2261520000   0.0217710000
O   2.1737350000   -1.4491050000   -0.1656160000
F   -2.5504970000   -1.9120520000   0.0602960000
H   1.7703620000   1.6656750000   -0.0004660000
H   4.3927570000   -0.4935410000   0.1240970000
H   3.8749820000   1.0682660000   0.5421190000
H   -0.0095670000   -1.6031350000   0.0779910000
H   -0.2296350000   2.6871640000   -0.0615900000
H   -3.8183650000   0.3240110000   -0.0327980000
H   -2.6818190000   2.5544920000   -0.0899180000
