18
0553chl.xyz
C   -1.4563550000   2.1908200000   -0.0332370000
C   -2.3116310000   1.0986950000   -0.0171970000
C   -1.7510370000   -0.1663350000   0.0103740000
C   -0.3816060000   -0.3784490000   0.0214880000
C   0.4622910000   0.7306450000   0.0058270000
C   -0.0853880000   2.0148530000   -0.0212330000
N   1.8602550000   0.6314580000   0.0309720000
C   2.6288700000   -0.5129930000   -0.0234450000
N   3.9856820000   -0.2544050000   0.0165780000
O   2.1861970000   -1.6318690000   -0.1333750000
Cl   -2.7995390000   -1.5492680000   0.0314850000
H   2.3509630000   1.5079650000   -0.0260260000
H   4.5419200000   -1.0847540000   0.1346820000
H   4.3170500000   0.5554870000   0.5124180000
H   0.0192610000   -1.3772500000   0.0359690000
H   0.5705520000   2.8765490000   -0.0319400000
H   -3.3842600000   1.2202420000   -0.0262440000
H   -1.8653240000   3.1914820000   -0.0554020000
