11
0573bro.xyz
C   0.7958420000   1.1967480000   0.0000140000
C   2.1825140000   1.1349710000   0.0000440000
N   2.8744600000   0.0000000000   0.0000500000
C   2.1825160000   -1.1349690000   0.0000350000
C   0.7958420000   -1.1967490000   0.0000170000
C   0.1015000000   -0.0000010000   0.0000030000
Br   -1.7872840000   0.0000000000   -0.0000330000
H   0.2808440000   -2.1455850000   0.0000100000
H   2.7613710000   -2.0509610000   0.0000500000
H   2.7613700000   2.0509620000   0.0000450000
H   0.2808410000   2.1455820000   0.0000020000
