39
0928dip.xyz
Si   -0.0026570000   0.3503200000   0.1432220000
O   -0.0866680000   1.4690870000   -1.0506080000
O   -0.0333630000   1.0340180000   1.6294460000
C   -1.4825840000   -0.7410690000   -0.1151800000
C   -2.4023930000   -0.5382090000   -1.1454180000
C   -3.5012360000   -1.3758250000   -1.2917310000
C   -3.6952650000   -2.4277740000   -0.4073360000
C   -2.7898080000   -2.6441060000   0.6238440000
C   -1.6936060000   -1.8068510000   0.7641260000
H   -2.2517650000   0.2827350000   -1.8354980000
H   -4.2067400000   -1.2082330000   -2.0947860000
H   -4.5507410000   -3.0803260000   -0.5213470000
H   -2.9387010000   -3.4640470000   1.3135690000
H   -0.9881730000   -1.9871680000   1.5684880000
C   1.6102530000   -0.5703220000   0.0905920000
C   2.4888460000   -0.5817500000   1.1750320000
C   3.6898740000   -1.2768040000   1.1112560000
C   4.0290220000   -1.9710290000   -0.0415620000
C   3.1667280000   -1.9710000000   -1.1308140000
C   1.9678000000   -1.2767680000   -1.0614240000
H   2.2246720000   -0.0402310000   2.0746750000
H   4.3598650000   -1.2781430000   1.9608120000
H   4.9632500000   -2.5145810000   -0.0914600000
H   3.4283260000   -2.5145600000   -2.0289030000
H   1.2981700000   -1.2886750000   -1.9149850000
C   0.9082860000   2.4708920000   -1.2088200000
H   1.1250360000   2.9330870000   -0.2398540000
H   1.8323870000   2.0092410000   -1.5689710000
C   0.4118730000   3.5116680000   -2.1876210000
H   -0.5016430000   3.9748580000   -1.8156900000
H   1.1628650000   4.2881260000   -2.3318450000
H   0.1963610000   3.0508300000   -3.1506560000
C   -1.1453840000   1.7390540000   2.1582800000
H   -2.0762450000   1.2403870000   1.8683500000
H   -1.0682300000   1.6853070000   3.2447200000
C   -1.1532980000   3.1840930000   1.6967820000
H   -0.2223880000   3.6747640000   1.9804580000
H   -1.2607340000   3.2384000000   0.6128880000
H   -1.9827800000   3.7237060000   2.1541940000
