8
c065.xyz
O   0.4974890000   -0.6940040000   0.0007090000
C   1.3741340000   0.3479490000   0.0092400000
H   2.0471890000   0.3598250000   0.8968320000
H   2.0608510000   0.3643170000   -0.8674830000
H   0.8758980000   1.3416420000   0.0066050000
H   -0.7808750000   -0.2205750000   -0.0805640000
O   -1.7944010000   0.1861500000   -0.1034060000
H   -2.0725710000   0.1299310000   0.8107520000
