17
c069.xyz
O   -0.7391940000   -1.0805660000   -0.3720240000
C   0.0394200000   -0.8573360000   0.7176860000
C   1.1565340000   0.1890600000   0.4714700000
H   -0.5412730000   -0.4859730000   1.5938350000
H   0.5510860000   -1.7812590000   1.0742810000
H   -1.8425800000   -0.2231550000   -0.3242660000
O   -2.6950050000   0.4268380000   -0.2396350000
H   -3.3969010000   -0.1609580000   0.0397760000
H   1.7225150000   0.3100970000   1.4057380000
C   0.5324850000   1.5250690000   0.0827420000
C   2.0950740000   -0.3039060000   -0.6250100000
H   -0.0721790000   1.3889090000   -0.8152110000
H   1.5018600000   -0.5213970000   -1.5145730000
H   1.2924580000   2.2888380000   -0.1098770000
H   -0.1395010000   1.8855640000   0.8638320000
H   2.5985340000   -1.2265780000   -0.3248020000
H   2.8584910000   0.4384180000   -0.8767990000
