12
c071.xyz
C   -1.3775770000   -0.4510520000   -0.0399670000
C   -0.2177940000   0.4384580000   0.3522180000
O   0.7055900000   0.5475530000   -0.6389850000
H   -0.6572500000   1.4117300000   0.6684600000
H   0.2073740000   -0.0014970000   1.2842380000
H   -1.0736280000   -1.4093210000   -0.4562870000
C   -2.6681670000   -0.1444350000   0.0381310000
H   -3.4479490000   -0.8272820000   -0.2794620000
H   -2.9855950000   0.8209310000   0.4198070000
H   1.9211140000   -0.0449420000   -0.2257790000
O   2.8336170000   -0.4611680000   0.1402070000
H   3.3035010000   0.3014710000   0.4769540000
