7
c088.xyz
O   0.0000000000   1.1923480000   -0.0347190000
O   0.0000000000   -1.1923480000   -0.0347190000
H   0.0000000000   0.0000000000   0.0195790000
H   0.3193760000   1.7094070000   0.7158630000
H   -0.7561500000   1.6296750000   -0.4479020000
H   -0.3193760000   -1.7094070000   0.7158630000
H   0.7561500000   -1.6296750000   -0.4479020000
