6
c090.xyz
O   0.6621110000   0.7808350000   0.0043900000
O   1.1624180000   -0.5756940000   0.0167840000
H   0.3193440000   -1.0503520000   -0.0636900000
H   -0.4341460000   0.5107210000   -0.0381520000
O   -1.5690220000   -0.1215720000   -0.1061360000
H   -1.9292560000   -0.1289240000   0.7815380000
