11
c121.xyz
C   0.2270020000   -0.7332370000   0.6442810000
O   1.1599670000   -1.1016670000   -0.2437090000
O   3.0800550000   0.4936740000   0.0819010000
C   -0.9066920000   0.0700010000   0.0203350000
F   -1.8332330000   0.4483650000   0.9417320000
F   -0.4891340000   1.2054880000   -0.5647220000
F   -1.5884410000   -0.6078710000   -0.9192770000
H   0.5932800000   -0.0702860000   1.4603400000
H   -0.3011350000   -1.5718160000   1.1514060000
H   2.3233440000   -0.2042250000   -0.0717740000
H   2.7397480000   1.2758400000   -0.3527970000
