11
i009.xyz
N   0.0000000000   0.0000000000   0.5456930000
C   0.0000000000   1.2516710000   -0.2769180000
C   0.0000000000   -1.2516710000   -0.2769180000
H   0.0000000000   2.1115320000   0.3855730000
H   0.0000000000   -2.1115320000   0.3855730000
H   0.8152530000   0.0000000000   1.1610520000
H   -0.8152530000   0.0000000000   1.1610520000
H   -0.8908870000   1.2478640000   -0.8975220000
H   0.8908870000   1.2478640000   -0.8975220000
H   0.8908870000   -1.2478640000   -0.8975220000
H   -0.8908870000   -1.2478640000   -0.8975220000
