9
i030.xyz
C   -0.7361110000   -0.4770680000   0.0000000000
C   0.7361110000   -0.4770670000   0.0000000000
N   0.0000000000   0.8130280000   0.0000000000
H   -1.2666310000   -0.6751820000   0.9190310000
H   -1.2666310000   -0.6751820000   -0.9190310000
H   1.2666320000   -0.6751820000   -0.9190310000
H   1.2666320000   -0.6751820000   0.9190310000
H   0.0000000000   1.3671720000   0.8501760000
H   0.0000000000   1.3671720000   -0.8501760000
