18
i033.xyz
C   -0.6961180000   -1.2562790000   0.2469100000
C   0.7446080000   -1.2564210000   -0.2310350000
C   1.4813590000   0.0000050000   0.2287220000
C   0.7445990000   1.2564260000   -0.2310350000
C   -0.6961260000   1.2562740000   0.2469100000
N   -1.3839800000   -0.0000040000   -0.2296220000
H   -0.7623250000   -1.2386490000   1.3346000000
H   -1.2685240000   -2.1007450000   -0.1306940000
H   0.7654440000   -1.3307880000   -1.3223830000
H   1.2238720000   -2.1562990000   0.1516210000
H   2.4958950000   0.0000080000   -0.1640150000
H   1.5626980000   0.0000050000   1.3186650000
H   0.7654350000   1.3307930000   -1.3223830000
H   1.2238580000   2.1563070000   0.1516200000
H   -1.2685380000   2.1007360000   -0.1306940000
H   -0.7623320000   1.2386440000   1.3346000000
H   -2.3578980000   -0.0000080000   0.0761060000
H   -1.3996560000   -0.0000040000   -1.2525240000
