7
i050.xyz
H   -0.9932380000   1.1271700000   0.0000000000
C   0.0357140000   0.7856400000   0.0000000000
O   0.0357140000   -0.7141310000   0.0000000000
H   0.5783140000   1.0624550000   0.8960730000
H   0.5783140000   1.0624550000   -0.8960730000
H   -0.3316950000   -1.1264370000   -0.8011420000
H   -0.3316950000   -1.1264370000   0.8011420000
