9
i063.xyz
C   -1.4749450000   0.9133530000   -0.4992880000
C   -0.6518740000   -0.2226800000   0.0791700000
C   0.8723490000   0.0073100000   0.0150850000
O   1.2611700000   0.8744740000   0.8205000000
O   1.4817790000   -0.6498360000   -0.8415400000
O   -1.1828850000   -1.1958210000   0.5658860000
H   -2.5386330000   0.6963110000   -0.4184850000
H   -1.1941130000   1.0563030000   -1.5442640000
H   -1.2209460000   1.8289520000   0.0341780000
