11
i067.xyz
C   -1.8213890000   -0.1544790000   0.0000090000
C   -0.4666580000   0.5481660000   0.0000000000
C   0.7377790000   -0.4363680000   -0.0000030000
O   1.9327180000   0.1442850000   -0.0000070000
H   -2.6663820000   0.5395820000   0.0000070000
H   -1.9185050000   -0.7973410000   0.8793330000
H   -1.9185110000   -0.7973520000   -0.8793070000
H   -0.3663390000   1.1930140000   0.8786310000
H   -0.3663480000   1.1930070000   -0.8786380000
H   0.5379730000   -1.1145550000   -0.8847170000
H   0.5379790000   -1.1145500000   0.8847160000
