13
i080.xyz
C   -1.1326800000   1.1504690000   -0.0000060000
C   0.1312680000   1.7497080000   0.0000010000
C   1.2991120000   1.0191420000   -0.0000030000
C   1.2978770000   -0.4242630000   -0.0000350000
C   -0.0184740000   -1.0068110000   -0.0000060000
C   -1.1656040000   -0.2403270000   -0.0000010000
O   -2.4141590000   -0.8436720000   0.0000090000
O   2.3489570000   -1.1151210000   0.0000240000
H   -2.0507370000   1.7197020000   -0.0000010000
H   0.1899320000   2.8342250000   0.0000120000
H   2.2638560000   1.5116020000   0.0000110000
H   -0.0842120000   -2.0914800000   0.0000040000
H   -2.2662270000   -1.7912110000   0.0000090000
