6
i082.xyz
C   -1.0080810000   -0.3264090000   0.0000000000
O   0.0000000000   0.6070210000   0.0000000000
O   1.2420740000   -0.1426830000   0.0000000000
H   -1.9739090000   0.2021730000   0.0000000000
H   -0.9570970000   -0.9792150000   0.8872300000
H   -0.9570970000   -0.9792150000   -0.8872300000
