10
i106.xyz
S   -0.0339230000   -0.6000570000   0.0000000000
H   1.2666680000   -0.9401730000   0.0000000000
C   -0.0339230000   0.5192650000   1.4113740000
C   -0.0339230000   0.5192650000   -1.4113740000
H   0.7400210000   1.2718540000   1.2959070000
H   0.1250830000   -0.0863710000   2.3003820000
H   -1.0235110000   0.9694690000   1.4442390000
H   0.7400210000   1.2718540000   -1.2959070000
H   0.1250830000   -0.0863710000   -2.3003820000
H   -1.0235110000   0.9694690000   -1.4442390000
