11
i122.xyz
C   -1.2584440000   -0.0980210000   -0.0354140000
F   -1.3968260000   -0.1838390000   1.2935230000
F   -2.3635790000   0.5057210000   -0.4985840000
F   -1.3196880000   -1.3705520000   -0.5008510000
C   0.0000410000   0.6901500000   -0.4807690000
C   1.2584660000   -0.0980730000   -0.0354310000
F   2.3635490000   0.5048080000   -0.4997710000
F   1.3188330000   -1.3710250000   -0.4997770000
F   1.3975730000   -0.1826760000   1.2935490000
O   0.0000910000   1.9232010000   -0.0485230000
H   0.0001360000   0.5281330000   -1.5949420000
