18
i133.xyz
C   2.4193050000   -1.0831510000   0.0001810000
C   1.2017580000   -0.2226190000   0.0001690000
C   1.2059060000   1.1570710000   0.0001760000
N   0.0000020000   -0.8404490000   -0.0001080000
C   -0.0000110000   1.8443020000   -0.0000480000
C   -1.2059130000   1.1570660000   -0.0002450000
C   -1.2017450000   -0.2226360000   -0.0002880000
C   -2.4193000000   -1.0831560000   0.0000320000
H   2.4359400000   -1.7236630000   0.8829500000
H   3.3155370000   -0.4708360000   0.0022730000
H   2.4379810000   -1.7204530000   -0.8848930000
H   2.1499730000   1.6807820000   0.0003820000
H   0.0000110000   -1.8557460000   -0.0001300000
H   -0.0000080000   2.9260040000   -0.0000600000
H   -2.1499940000   1.6807530000   -0.0004530000
H   -3.3155240000   -0.4708390000   -0.0038230000
H   -2.4387100000   -1.7188830000   0.8862350000
H   -2.4352180000   -1.7252450000   -0.8815910000
