19
i144.xyz
C   -2.8213350000   -1.0198800000   0.0000000000
O   -2.2203540000   0.2652190000   0.0000020000
C   -0.8922680000   0.3588810000   0.0000000000
C   -0.3613150000   1.6580200000   -0.0000060000
C   -0.0293190000   -0.7358270000   0.0000030000
C   0.9976950000   1.8640570000   -0.0000080000
C   1.8833960000   0.7832150000   -0.0000040000
C   1.3320700000   -0.4721740000   0.0000010000
N   2.2505390000   -1.6424130000   0.0000090000
H   -3.8918870000   -0.8493330000   -0.0000050000
H   -2.5413390000   -1.5772280000   0.8958690000
H   -2.5413310000   -1.5772290000   -0.8958660000
H   -1.0549640000   2.4869520000   -0.0000100000
H   -0.4029620000   -1.7501300000   0.0000080000
H   1.3886970000   2.8712410000   -0.0000140000
H   2.9539920000   0.9397700000   -0.0000060000
H   2.1105390000   -2.2278470000   -0.8277350000
H   3.2241810000   -1.3310190000   -0.0000320000
H   2.1105930000   -2.2277950000   0.8278000000
