16
i157.xyz
C   -0.5132760000   1.2237040000   -0.0003050000
C   0.1773750000   0.0000010000   -0.0001190000
C   -1.8909830000   1.2141000000   -0.0002650000
C   -0.5132740000   -1.2237020000   0.0001800000
C   1.6024110000   0.0000010000   -0.0001910000
C   -2.5741390000   -0.0000010000   -0.0000200000
C   -1.8909800000   -1.2141000000   0.0002040000
O   2.2307200000   1.1286580000   0.0004600000
O   2.2307140000   -1.1286590000   -0.0001810000
H   0.0320350000   2.1566700000   -0.0005190000
H   -2.4386730000   2.1450930000   -0.0004300000
H   0.0320410000   -2.1566670000   0.0003740000
H   -3.6559330000   -0.0000020000   0.0000290000
H   -2.4386690000   -2.1450940000   0.0004180000
H   3.1974660000   1.0881110000   0.0001590000
H   3.1974600000   -1.0881160000   0.0008410000
