29
i159.xyz
C   -3.7344760000   -0.7718350000   0.1319600000
C   -2.5052250000   -0.0008610000   -0.3449240000
C   -2.5397570000   1.4468340000   0.1424190000
C   -1.2657240000   -0.7348230000   0.1468990000
N   0.0000000000   -0.0476940000   -0.2791940000
C   1.2657240000   -0.7348230000   0.1468980000
C   2.5052250000   -0.0008600000   -0.3449240000
C   3.7344760000   -0.7718350000   0.1319580000
C   2.5397570000   1.4468330000   0.1424230000
H   -3.7149860000   -1.8088560000   -0.2022250000
H   -4.6406280000   -0.3109320000   -0.2553930000
H   -3.7942830000   -0.7631230000   1.2215190000
H   -2.4947170000   -0.0114360000   -1.4400430000
H   -1.7488260000   2.0677540000   -0.2857240000
H   -2.4675230000   1.4915480000   1.2316550000
H   -3.4802790000   1.9143320000   -0.1426540000
H   -1.2131080000   -1.7503660000   -0.2429300000
H   -1.2378480000   -0.7771180000   1.2365740000
H   0.0000000000   0.9039410000   0.0939140000
H   -0.0000010000   0.0545280000   -1.2973680000
H   1.2131080000   -1.7503660000   -0.2429330000
H   1.2378480000   -0.7771200000   1.2365730000
H   2.4947170000   -0.0114320000   -1.4400420000
H   4.6406280000   -0.3109310000   -0.2553940000
H   3.7149860000   -1.8088550000   -0.2022310000
H   3.7942830000   -0.7631270000   1.2215170000
H   3.4802780000   1.9143330000   -0.1426510000
H   2.4675240000   1.4915450000   1.2316590000
H   1.7488250000   2.0677540000   -0.2857170000
