29
i161.xyz
C   -5.0147850000   -0.4338950000   -0.0000060000
C   -3.7805730000   0.4592920000   -0.0000110000
C   -2.4896830000   -0.3594020000   0.0000110000
C   -1.2696990000   0.5406040000   -0.0000030000
N   0.0000000000   -0.2648990000   0.0000180000
C   1.2696990000   0.5406040000   -0.0000060000
C   2.4896830000   -0.3594020000   0.0000120000
C   3.7805730000   0.4592920000   -0.0000170000
C   5.0147850000   -0.4338950000   0.0000010000
H   -5.9243600000   0.1623940000   -0.0000200000
H   -5.0335560000   -1.0737800000   0.8822550000
H   -5.0335450000   -1.0738040000   -0.8822480000
H   -3.7917340000   1.1108560000   0.8765010000
H   -3.7917210000   1.1108290000   -0.8765420000
H   -2.4715490000   -1.0084190000   -0.8808240000
H   -2.4715560000   -1.0083840000   0.8808720000
H   -1.2322690000   1.1759000000   0.8840870000
H   -1.2322630000   1.1758630000   -0.8841200000
H   -0.0000010000   -0.8839290000   -0.8140030000
H   0.0000010000   -0.8838880000   0.8140700000
H   1.2322690000   1.1759040000   0.8840820000
H   1.2322630000   1.1758590000   -0.8841250000
H   2.4715480000   -1.0084250000   -0.8808190000
H   2.4715580000   -1.0083780000   0.8808770000
H   3.7917320000   1.1108660000   0.8764870000
H   3.7917230000   1.1108180000   -0.8765570000
H   5.9243600000   0.1623940000   -0.0000220000
H   5.0335450000   -1.0738170000   -0.8822320000
H   5.0335560000   -1.0737670000   0.8822700000
