14
i180.xyz
C   1.2198890000   -0.3804740000   0.1527140000
C   0.7536950000   0.9998550000   -0.2436480000
O   -0.0182210000   -1.1936980000   -0.0993680000
C   -0.6961060000   1.0417670000   0.2525470000
C   -1.2458560000   -0.3156660000   -0.1291560000
H   1.4467750000   -0.4732400000   1.2123050000
H   1.9918600000   -0.8235290000   -0.4670770000
H   0.8041930000   1.1220900000   -1.3248000000
H   1.3729400000   1.7632920000   0.2205970000
H   -0.0992040000   -1.9964250000   0.4362370000
H   -1.2709800000   1.8353040000   -0.2180200000
H   -0.7319400000   1.1825370000   1.3320300000
H   -1.9607990000   -0.7497530000   0.5627080000
H   -1.5968100000   -0.3835850000   -1.1537780000
