10
i181.xyz
C   -1.2379440000   -1.1204350000   0.0000230000
C   -0.3628170000   0.0877540000   0.0000070000
N   -0.9137260000   1.2667960000   0.0000350000
S   1.3123990000   -0.1880900000   -0.0000350000
H   -0.6555950000   -2.0365730000   0.0000440000
H   -1.8752480000   -1.1019000000   -0.8855190000
H   -1.8752670000   -1.1018700000   0.8855500000
H   -1.9223970000   1.3579590000   0.0000660000
H   -0.3806740000   2.1259550000   0.0000290000
H   1.7114400000   1.0943810000   -0.0000360000
