14
i194.xyz
C   -0.7199210000   -1.6279010000   0.0589550000
C   0.1539640000   -0.5404610000   0.0122270000
C   -2.0958590000   -1.4733960000   0.1026260000
C   -0.4253590000   0.7231660000   -0.0285000000
C   1.6806930000   -0.8453020000   0.0396730000
C   -1.8052410000   0.9020510000   -0.0117770000
Cl   0.5386950000   2.1713540000   -0.1564020000
C   -2.6445600000   -0.1968940000   0.0670390000
O   2.3670360000   -0.0561210000   0.7022740000
O   1.9963680000   -1.8764900000   -0.5785550000
H   -0.2635710000   -2.6090030000   0.0469220000
H   -2.7402900000   -2.3421040000   0.1534770000
H   -2.2061310000   1.9052040000   -0.0626560000
H   -3.7173490000   -0.0538130000   0.0898850000
