18
i204.xyz
O   3.4093780000   -0.6974840000   -0.0002440000
C   2.2225750000   -0.2901790000   0.0000450000
C   1.9228310000   1.1426140000   -0.0000860000
C   1.0747750000   -1.1296570000   -0.0000070000
C   0.6580580000   1.6361310000   -0.0000560000
C   -0.4767310000   0.7772550000   0.0000400000
C   -1.7950540000   1.2631170000   0.0000950000
C   -0.2321290000   -0.6344820000   0.0000180000
C   -2.8793370000   0.4170590000   0.0001000000
C   -2.6524150000   -0.9772650000   0.0001090000
C   -1.3806530000   -1.4829540000   0.0000550000
H   2.7797970000   1.8069430000   -0.0001570000
H   1.2386060000   -2.2015620000   -0.0000460000
H   0.4883250000   2.7094990000   -0.0000890000
H   -1.9442140000   2.3386170000   0.0000890000
H   -3.8882620000   0.8077880000   0.0001240000
H   -3.4981220000   -1.6554980000   0.0001150000
H   -1.2226800000   -2.5557430000   0.0000410000
