16
i220.xyz
O   2.4837020000   -1.8511470000   0.0000540000
C   2.5795720000   -0.6139670000   0.0000820000
O   3.5796660000   0.1234290000   -0.0001940000
C   1.2216120000   0.1417830000   0.0000480000
C   0.0239450000   -0.5623270000   0.0000060000
C   1.1861870000   1.5309710000   0.0000650000
C   -1.1682080000   0.1422040000   -0.0000190000
C   -0.0214210000   2.2221560000   0.0000390000
N   -2.4406210000   -0.5962180000   -0.0000610000
C   -1.2201730000   1.5292850000   -0.0000040000
O   -2.4019550000   -1.8070980000   0.0000440000
O   -3.4751160000   0.0466780000   -0.0000280000
H   0.0536110000   -1.6422320000   -0.0000100000
H   2.1389200000   2.0447330000   0.0001030000
H   -0.0323780000   3.3044640000   0.0000540000
H   -2.1752670000   2.0310340000   -0.0000250000
