7
i242.xyz
O   1.5028280000   1.3386810000   0.0000550000
C   1.6703970000   0.1188460000   -0.0000130000
O   2.7063880000   -0.5748490000   -0.0001010000
C   0.4274460000   -0.8284940000   0.0001160000
Br   -1.3470960000   0.0301910000   -0.0000240000
H   0.4437550000   -1.4544740000   0.8856190000
H   0.4438150000   -1.4549800000   -0.8850060000
