20
i247.xyz
O   -2.5484530000   -1.0365440000   -0.2801230000
C   -1.9391950000   0.0233740000   -0.0291980000
O   -2.3795240000   1.0902020000   0.4419850000
C   -0.4115900000   -0.0112450000   -0.3660650000
C   0.3231920000   1.2750080000   -0.0065250000
C   0.2583000000   -1.2135030000   0.3000630000
C   1.8111190000   1.1962210000   -0.3537940000
C   1.7454970000   -1.3035340000   -0.0421810000
C   2.4744220000   -0.0078820000   0.3163420000
H   -0.3454280000   -0.1613900000   -1.4522680000
H   0.2015530000   1.4535480000   1.0662300000
H   -0.1541420000   2.1194900000   -0.5034460000
H   -0.2766630000   -2.1163970000   0.0081080000
H   0.1462390000   -1.1153400000   1.3869320000
H   2.3261110000   2.1172180000   -0.0650690000
H   1.9235340000   1.0996170000   -1.4400910000
H   1.8530820000   -1.4831060000   -1.1180710000
H   2.2112520000   -2.1519230000   0.4679470000
H   2.4367400000   0.1287050000   1.4028040000
H   3.5310740000   -0.0703330000   0.0401730000
