17
i269.xyz
C   -2.3891830000   -1.0638900000   -0.3159370000
C   -2.8689600000   0.2369030000   -0.3590710000
C   -1.0779900000   -1.3106840000   0.0735070000
C   -0.2158550000   -0.2735450000   0.4281820000
C   1.1995940000   -0.5455620000   0.8321770000
C   -0.7108980000   1.0338040000   0.3711220000
C   -2.0179790000   1.2831460000   -0.0154020000
C   2.2710970000   0.0810060000   -0.1459110000
O   2.1792100000   1.3129700000   -0.2984310000
O   3.0879190000   -0.7259400000   -0.6169360000
H   -3.0344270000   -1.8905360000   -0.5876830000
H   -3.8896470000   0.4359350000   -0.6604250000
H   -0.7075750000   -2.3286840000   0.0993390000
H   1.3736730000   -1.6172250000   0.9083390000
H   1.3905310000   -0.0895990000   1.8070790000
H   -0.0306930000   1.8426650000   0.6007820000
H   -2.3778480000   2.3041400000   -0.0564950000
