12
n006.xyz
N   0.0055780000   0.0213660000   -0.3892730000
N   -0.4998330000   1.2705270000   0.0545040000
C   -0.8060880000   -1.0917200000   0.0662520000
C   1.3781170000   -0.1047440000   0.0605010000
H   -0.8058270000   1.2048190000   1.0280920000
H   -1.3099990000   1.5009080000   -0.5071120000
H   -0.3916080000   -2.0269450000   -0.3088740000
H   -1.8203310000   -0.9848390000   -0.3163890000
H   -0.8488140000   -1.1441030000   1.1670890000
H   1.9540940000   0.7357450000   -0.3169820000
H   1.7982710000   -1.0336970000   -0.3228460000
H   1.4518190000   -0.1163600000   1.1598850000
