12
n016.xyz
C   0.5607440000   0.5192320000   0.0000220000
C   -0.5607430000   -0.5192270000   -0.0000020000
N   -1.9137790000   0.0225890000   -0.0000160000
N   1.9137780000   -0.0225930000   -0.0000160000
H   0.4521120000   1.1655390000   0.8748520000
H   0.4520900000   1.1656050000   -0.8747590000
H   -0.4521120000   -1.1655760000   0.8747980000
H   -0.4520880000   -1.1655550000   -0.8748150000
H   -2.0704620000   0.6032210000   0.8142640000
H   -2.0703940000   0.6033820000   -0.8141960000
H   2.0704070000   -0.6033060000   -0.8142500000
H   2.0704460000   -0.6033100000   0.8142090000
