26
n188.xyz
C   -1.3675260000   1.0853680000   -0.1187200000
C   -2.5327910000   1.2307290000   -0.8544600000
C   -3.4999200000   0.2316610000   -0.8358970000
C   -3.2946540000   -0.9119840000   -0.0803750000
C   -2.1243180000   -1.0565060000   0.6558090000
C   -1.1567180000   -0.0613460000   0.6452180000
C   0.1311300000   -0.2088060000   1.4219790000
N   1.2841430000   -0.3162630000   0.5541480000
C   2.0518730000   0.7632260000   0.2290490000
C   2.9951030000   0.3346090000   -0.8839070000
C   2.8713710000   -1.1896900000   -0.9159840000
C   1.4746000000   -1.4476640000   -0.3341090000
O   1.9630640000   1.8657320000   0.7233450000
H   -0.6110820000   1.8622260000   -0.1206010000
H   -2.6926990000   2.1271060000   -1.4385770000
H   -4.4107870000   0.3477290000   -1.4073900000
H   -4.0430180000   -1.6928400000   -0.0623390000
H   -1.9637530000   -1.9508900000   1.2462640000
H   0.0862810000   -1.0922080000   2.0619980000
H   0.2989790000   0.6659550000   2.0501660000
H   3.9984480000   0.7088090000   -0.6999060000
H   2.6308900000   0.7948730000   -1.8048520000
H   3.6206910000   -1.6365120000   -0.2635510000
H   2.9886270000   -1.6155730000   -1.9090280000
H   0.7020140000   -1.4637620000   -1.1109690000
H   1.4130050000   -2.3845110000   0.2213770000
