9
n197.xyz
H   -0.2402480000   -1.4934560000   0.8837810000
C   -0.2401890000   -0.8630290000   0.0000200000
C   1.0536510000   -0.0599110000   0.0000090000
O   2.0965740000   -0.6732120000   -0.0000260000
N   0.9625120000   1.2841150000   0.0000820000
Cl   -1.7530060000   0.0795650000   -0.0000140000
H   -0.2401630000   -1.4935170000   -0.8836940000
H   0.0749550000   1.7530110000   -0.0001210000
H   1.8155970000   1.8158960000   -0.0002580000
