9
n199.xyz
H   -0.3697000000   -1.5298640000   -0.8842680000
C   -0.3525220000   -0.9021490000   0.0000340000
C   -1.6150540000   -0.0509700000   -0.0000010000
N   -1.4897650000   1.2899820000   0.0000100000
O   -2.6755450000   -0.6338730000   -0.0000280000
Br   1.3514510000   0.0353790000   -0.0000070000
H   -0.3696940000   -1.5297710000   0.8844020000
H   -0.5925070000   1.7401610000   0.0000240000
H   -2.3307050000   1.8410230000   0.0000230000
