12
n200.xyz
C   1.1400110000   -0.5259360000   0.0000760000
C   0.2292180000   -1.5001180000   0.0000770000
C   0.7477470000   0.8836040000   0.0002540000
F   2.4400720000   -0.7876320000   -0.0000610000
N   -1.1155030000   -1.2091280000   0.0000920000
C   -1.6214160000   0.0750500000   0.0001360000
N   -0.6389640000   1.0480520000   0.0000550000
O   -2.8007390000   0.3191850000   -0.0002160000
O   1.5025290000   1.8189100000   -0.0002300000
H   0.5105620000   -2.5427960000   -0.0000020000
H   -1.8037560000   -1.9433510000   -0.0000090000
H   -0.9738580000   2.0020160000   -0.0001610000
