15
n201.xyz
C   -0.3706770000   -1.3315520000   -0.0001080000
C   0.3439780000   -0.1973060000   -0.0000360000
N   -1.7314040000   -1.3245530000   -0.0000880000
C   -0.3402530000   1.0967130000   0.0000380000
C   1.8381870000   -0.2098410000   -0.0000350000
N   -1.7357510000   0.9844280000   0.0000810000
O   0.1954600000   2.1728350000   0.0001770000
C   -2.4961270000   -0.1628560000   0.0000200000
O   -3.6975870000   -0.1800410000   0.0000470000
F   2.3401730000   0.3956740000   1.0743250000
F   2.3401800000   0.3958080000   -1.0743130000
F   2.3025200000   -1.4691780000   -0.0001090000
H   0.1020820000   -2.3036640000   -0.0001790000
H   -2.2586450000   -2.1830290000   -0.0001370000
H   -2.2528330000   1.8535420000   0.0001700000
