      19
7674
 O  1.439000000 -0.458500000  0.426800000
 C  0.114700000 -0.227100000  0.216200000
 C  2.353700000  0.532900000 -0.038500000
 C -0.367000000  1.081400000  0.175000000
 C -0.761400000 -1.298600000  0.042200000
 C  3.665200000 -0.134400000 -0.394200000
 C -1.724600000  1.318500000 -0.040100000
 C -2.119100000 -1.061400000 -0.173100000
 C -2.600600000  0.247200000 -0.214200000
 H  1.985700000  1.036400000 -0.941300000
 H  2.516900000  1.272100000  0.753500000
 H  0.275800000  1.942200000  0.333300000
 H -0.392100000 -2.320000000  0.073300000
 H  4.395600000  0.599800000 -0.745700000
 H  4.080000000 -0.656700000  0.474300000
 H  3.515800000 -0.886700000 -1.176000000
 H -2.101200000  2.336900000 -0.065800000
 H -2.801400000 -1.895600000 -0.308200000
 H -3.657900000  0.431700000 -0.380200000
