      50
11007
 I -10.670400000  0.645200000 -0.017600000
 C  0.027300000  0.401700000  0.084700000
 C  1.292900000 -0.457100000  0.033600000
 C -1.265900000 -0.420600000  0.078300000
 C  2.586900000  0.363800000  0.029300000
 C -2.569000000  0.384600000  0.063900000
 C  3.889700000 -0.441100000  0.064700000
 C -3.824900000 -0.484300000 -0.028800000
 C  5.148300000  0.427800000  0.002200000
 C -5.092700000  0.374100000 -0.005900000
 C  6.413500000 -0.431600000  0.053600000
 C -6.350200000 -0.495000000 -0.065200000
 C  7.707000000  0.384400000 -0.030700000
 C -7.651700000  0.311800000 -0.028600000
 C  9.003800000 -0.428400000 -0.070200000
 C -8.903200000 -0.565700000 -0.058300000
 C  10.258500000  0.430300000 -0.105000000
 H  0.047700000  1.028000000  0.984900000
 H  0.021200000  1.082900000 -0.775000000
 H  1.268900000 -1.089500000 -0.862300000
 H  1.302100000 -1.132800000  0.897500000
 H -1.269000000 -1.080600000  0.955000000
 H -1.254500000 -1.076900000 -0.801500000
 H  2.590800000  1.001700000 -0.863700000
 H  2.575800000  1.042100000  0.892200000
 H -2.548800000  1.078400000 -0.785700000
 H -2.614400000  0.998600000  0.971800000
 H  3.894100000 -1.144200000 -0.777400000
 H  3.908300000 -1.044900000  0.980400000
 H -3.795100000 -1.076900000 -0.950900000
 H -3.842000000 -1.190300000  0.810200000
 H  5.140700000  1.018500000 -0.921600000
 H  5.150200000  1.135200000  0.839800000
 H -5.111500000  0.980500000  0.907700000
 H -5.085300000  1.067700000 -0.855300000
 H  6.394800000 -1.150600000 -0.774800000
 H  6.421400000 -1.017600000  0.980900000
 H -6.343000000 -1.197200000  0.777900000
 H -6.329800000 -1.099600000 -0.980500000
 H  7.666800000  1.016500000 -0.927100000
 H  7.744100000  1.068100000  0.826900000
 H -7.658300000  0.932100000  0.876900000
 H -7.662700000  1.002900000 -0.881100000
 H  8.993800000 -1.081800000 -0.950400000
 H  9.046400000 -1.081300000  0.809500000
 H -8.906500000 -1.243900000  0.802100000
 H -8.906600000 -1.183400000 -0.963100000
 H  10.319500000  1.068300000  0.782300000
 H  11.151500000 -0.201700000 -0.133000000
 H  10.266900000  1.072600000 -0.991200000
