8
test4004.xyz
C   -1.3872870000   0.6997190000   0.0000030000
H   -1.4561730000   1.3215890000   0.8853940000
H   -1.4561760000   1.3215920000   -0.8853840000
I   0.6332650000   -0.0403870000   -0.0000010000
C   -2.3937700000   -0.4289950000   0.0000030000
H   -2.2801480000   -1.0558520000   0.8816910000
H   -3.4040340000   -0.0153380000   0.0000050000
H   -2.2801510000   -1.0558480000   -0.8816890000
