11
test5011.xyz
C   1.1127760000   -0.3150190000   0.0000430000
C   1.1998810000   1.0655780000   0.0000790000
N   0.0000000000   -1.0064480000   -0.0000230000
C   0.0000010000   1.7588060000   0.0000400000
F   -2.2331210000   -1.0255290000   -0.0001240000
C   -1.1998810000   1.0655780000   -0.0000300000
F   2.2331210000   -1.0255300000   0.0000770000
C   -1.1127770000   -0.3150190000   -0.0000570000
H   2.1620060000   1.5526250000   0.0001330000
H   0.0000000000   2.8398810000   0.0000650000
H   -2.1620050000   1.5526270000   -0.0000620000
