28
test2003.xyz
C   -2.3831180000   1.2700350000   0.0249670000
C   -1.4622630000   -0.9509060000   -0.0170150000
C   -3.6615370000   0.7506320000   0.0248100000
C   -2.7408330000   -1.4810470000   -0.0186490000
C   -1.2741350000   0.4264340000   0.0040000000
C   -3.8408420000   -0.6297290000   0.0018210000
C   0.0764110000   1.0418550000   -0.0017540000
C   5.7752490000   -1.2334510000   0.0416500000
C   4.8014380000   -0.0639060000   -0.0381720000
C   3.3481690000   -0.5205840000   0.0191620000
C   2.3915010000   0.6489220000   -0.0285440000
O   0.2811890000   2.2274050000   -0.0050770000
O   -5.1155780000   -1.0898060000   0.0000150000
O   1.0589840000   0.1298020000   -0.0049050000
H   -2.2192730000   2.3388190000   0.0407110000
H   -0.6037290000   -1.6065820000   -0.0331190000
H   -4.5332940000   1.3892760000   0.0405600000
H   -2.8893340000   -2.5539560000   -0.0365350000
H   5.6082690000   -1.9342760000   -0.7773010000
H   6.8096530000   -0.8966070000   -0.0106040000
H   5.6468740000   -1.7799550000   0.9767220000
H   4.9957100000   0.6334680000   0.7806580000
H   4.9692400000   0.4929260000   -0.9634150000
H   3.1364580000   -1.1912380000   -0.8172150000
H   3.1720870000   -1.0892170000   0.9355700000
H   2.5281630000   1.3176130000   0.8229650000
H   2.5241290000   1.2407840000   -0.9363710000
H   -5.1219530000   -2.0497900000   -0.0165490000
