39
test1011.xyz
C   -0.1489750000   0.2263830000   0.1224870000
N   -1.4912480000   0.4569400000   0.3875490000
C   -2.4391630000   0.2701140000   -0.7213530000
H   -2.5478740000   1.2250590000   -1.2494020000
C   -3.8014210000   -0.2328140000   -0.2735680000
H   -4.3006070000   0.5310780000   0.3300350000
H   -3.6694180000   -1.1139770000   0.3574360000
C   -4.6817850000   -0.5801160000   -1.4697760000
H   -4.2011380000   -1.3794500000   -2.0395380000
H   -4.7470270000   0.2824810000   -2.1383930000
C   -6.0807650000   -1.0155030000   -1.0517290000
H   -6.5926170000   -0.2154710000   -0.5150980000
H   -6.0342780000   -1.8819300000   -0.3909340000
H   -6.6902130000   -1.2835230000   -1.9138280000
H   -2.0033680000   -0.4421410000   -1.4185760000
C   -1.8422810000   1.4939000000   1.3621600000
H   -2.5272250000   2.2046990000   0.8937410000
H   -0.9546490000   2.0591410000   1.6495990000
C   -2.4492650000   0.8925920000   2.6242060000
H   -1.7350440000   0.2214240000   3.1011120000
H   -3.3474020000   0.3225890000   2.3978830000
H   -2.7060910000   1.6816330000   3.3314950000
C   0.7970960000   1.2429050000   -0.1021080000
C   2.1521230000   1.0289310000   -0.2392420000
H   2.8110390000   1.8709550000   -0.4003140000
C   2.6340820000   -0.2672960000   -0.2033730000
C   4.1096050000   -0.5255590000   -0.3270820000
F   4.7047150000   0.3968310000   -1.0845790000
F   4.3532000000   -1.7199880000   -0.8670970000
F   4.7079710000   -0.5019510000   0.8678370000
C   1.7619430000   -1.3179320000   0.0095390000
H   2.1191380000   -2.3352970000   0.0872330000
C   0.4126280000   -1.0634330000   0.1615780000
N   -0.4195010000   -2.2326250000   0.4904730000
O   0.0627400000   -3.0345820000   1.2588390000
O   -1.5066740000   -2.3241540000   -0.0259770000
N   0.3521930000   2.6383410000   -0.2785770000
O   -0.6518100000   2.8231300000   -0.9249610000
O   1.0458390000   3.5014910000   0.2077920000
