28
test1058.xyz
C   -2.9574200000   1.1292380000   -0.0026500000
C   -3.7551990000   -0.0056120000   0.0010400000
C   -3.2294110000   -1.2842830000   0.0028560000
C   -1.8526970000   -1.4258090000   0.0010120000
C   -1.0306150000   -0.3032680000   -0.0021950000
C   -1.5852940000   0.9780910000   -0.0042790000
N   -5.2195260000   0.1579430000   0.0029740000
O   -5.6568950000   1.2869980000   0.0010480000
O   -5.8953420000   -0.8467290000   0.0064570000
N   0.3667320000   -0.5690480000   -0.0036510000
N   1.0815690000   0.4455030000   -0.0014040000
C   2.4703950000   0.2163420000   -0.0031070000
C   3.2781610000   1.3502960000   0.0005850000
C   3.0657210000   -1.0491600000   -0.0071410000
C   4.4355850000   -1.1660930000   -0.0074320000
C   5.2541770000   -0.0243090000   -0.0019120000
C   4.6534970000   1.2384000000   0.0008460000
N   6.6242960000   -0.1524250000   -0.0472980000
H   -3.4208790000   2.1039620000   -0.0042740000
H   -3.8915730000   -2.1362300000   0.0054930000
H   -1.3918520000   -2.4034690000   0.0020600000
H   -0.9317290000   1.8369900000   -0.0072640000
H   2.8010740000   2.3211320000   0.0042370000
H   2.4364890000   -1.9272510000   -0.0094870000
H   4.8974510000   -2.1453650000   -0.0147770000
H   5.2745280000   2.1246930000   0.0002490000
H   7.0168680000   -1.0380900000   0.2215150000
H   7.1746250000   0.6446660000   0.2221310000
