25
test1050.xyz
C   1.1217120000   -0.5331430000   -0.0000080000
N   2.2892400000   -1.1954200000   -0.0000110000
C   3.5877490000   -0.5454060000   -0.0000360000
H   3.6687790000   0.1001760000   0.8754180000
H   3.6688030000   0.1000790000   -0.8755600000
C   4.6845640000   -1.5940480000   0.0000370000
H   4.6178350000   -2.2276590000   -0.8848460000
H   4.6178150000   -2.2275550000   0.8849920000
H   5.6619930000   -1.1166070000   0.0000180000
H   2.2291450000   -2.1998600000   -0.0000290000
N   0.0000000000   -1.2538750000   -0.0000030000
C   -1.1217120000   -0.5331430000   0.0000050000
N   -2.2892400000   -1.1954200000   0.0000090000
C   -3.5877490000   -0.5454060000   0.0000200000
H   -3.6687840000   0.1001520000   -0.8754520000
H   -3.6687980000   0.1001040000   0.8755260000
C   -4.6845640000   -1.5940480000   -0.0000180000
H   -4.6178310000   -2.2276340000   0.8848830000
H   -4.6178190000   -2.2275810000   -0.8849550000
H   -5.6619930000   -1.1166070000   -0.0000100000
H   -2.2291450000   -2.1998600000   0.0000100000
N   -1.1837220000   0.8156050000   0.0000090000
C   0.0000000000   1.3826980000   0.0000010000
Cl   0.0000000000   3.1183750000   0.0000020000
N   1.1837220000   0.8156050000   -0.0000090000
