24
test1018.xyz
C   0.2341940000   0.6776610000   -1.3336650000
C   -1.1040090000   0.9244330000   -0.5875120000
Cl   -2.1106390000   2.1699680000   -1.2901630000
C   -1.7033170000   -0.5145890000   -0.5640700000
Cl   -3.2151450000   -0.6485060000   0.3309960000
Cl   -1.9498150000   -1.2136500000   -2.1668530000
C   -0.7934530000   1.0794660000   0.8938870000
Cl   -0.8494680000   2.5511780000   1.7272720000
C   -0.4145440000   -0.1090700000   1.3529050000
Cl   0.1373840000   -0.5046450000   2.9026550000
C   -0.4654500000   -1.0916030000   0.1911860000
Cl   -0.5503950000   -2.7813810000   0.6250720000
C   0.6767530000   -0.7210850000   -0.7921530000
C   2.0746980000   -0.5069020000   -0.2079990000
C   2.5980870000   0.6851900000   -1.0046890000
C   1.4005890000   1.6322830000   -1.0518740000
H   0.0238980000   0.6240200000   -2.3989610000
H   0.7162020000   -1.4623090000   -1.5871940000
Cl   3.1119920000   -1.9416850000   -0.3380300000
H   2.0469910000   -0.2414640000   0.8474180000
Cl   4.0432690000   1.4194580000   -0.2818060000
H   2.8821190000   0.3573380000   -2.0040120000
H   1.5154660000   2.4050660000   -1.8074210000
H   1.3019180000   2.1201280000   -0.0813490000
