41
test1031.xyz
C   0.1288990000   -1.8345000000   -0.5672930000
S   -1.6191090000   -1.8071760000   -1.0222840000
H   0.5247850000   -2.7828490000   -0.9193110000
H   0.2172630000   -1.7820130000   0.5168730000
S   1.0441280000   -0.4644750000   -1.3520990000
P   2.6736540000   -0.5045440000   -0.0411820000
S   3.5211570000   -2.1932480000   0.2393530000
O   3.5047350000   0.6487270000   -0.7528340000
C   4.8001740000   1.0060600000   -0.2345760000
H   5.4399290000   0.1237680000   -0.2638630000
H   4.6867810000   1.3152450000   0.8073520000
C   5.3427860000   2.1246250000   -1.0897450000
H   4.6812370000   2.9889930000   -1.0575910000
H   5.4380500000   1.7974220000   -2.1234670000
H   6.3249850000   2.4243540000   -0.7266240000
O   2.1717470000   0.1220150000   1.3244430000
C   1.5069590000   1.4004400000   1.3885470000
H   0.5290270000   1.3061350000   0.9154690000
H   2.0995990000   2.1324640000   0.8352450000
C   1.3756280000   1.7704700000   2.8451000000
H   2.3552640000   1.8595860000   3.3126350000
H   0.8004040000   1.0101810000   3.3699250000
H   0.8541020000   2.7227120000   2.9355700000
P   -2.2414170000   -0.2515840000   0.2374340000
O   -1.7904600000   1.1225740000   -0.4112060000
C   -2.0643400000   1.4853330000   -1.7757610000
C   -3.2798010000   2.3828730000   -1.8485270000
H   -3.1573050000   3.2423540000   -1.1911060000
H   -4.1779840000   1.8393680000   -1.5581370000
H   -3.4129410000   2.7424690000   -2.8684820000
H   -2.1951740000   0.5833790000   -2.3751820000
H   -1.1665350000   1.9945770000   -2.1215650000
O   -3.7893510000   -0.3877600000   -0.0941090000
C   -4.7668230000   0.2605080000   0.7439660000
H   -4.5359130000   1.3270700000   0.7951000000
H   -4.6838050000   -0.1572780000   1.7468050000
C   -6.1257290000   0.0126850000   0.1373480000
H   -6.3228700000   -1.0559570000   0.0752960000
H   -6.1869830000   0.4351110000   -0.8647860000
H   -6.8942830000   0.4741190000   0.7560850000
S   -1.6949930000   -0.3410200000   2.0684860000
