30
test3019.xyz
C   -1.7831840000   -1.7419240000   -0.9321540000
C   -2.0297510000   -0.4523010000   -0.2041800000
C   -0.9373240000   0.2895480000   0.2793750000
C   -1.1333190000   1.4806360000   0.9727830000
C   -2.4136410000   1.9665120000   1.1705640000
C   -3.5086050000   1.2609410000   0.7024910000
C   -3.3004040000   0.0629690000   0.0360700000
Cl   -4.7131860000   -0.7968170000   -0.5105990000
N   0.3441450000   -0.2516620000   0.0986400000
C   1.5156800000   0.4213480000   -0.1360960000
C   1.5201510000   1.7561230000   -0.5776860000
C   2.7022590000   2.4189600000   -0.8237020000
C   3.9339000000   1.7911550000   -0.6447730000
C   3.9500620000   0.4760160000   -0.2379010000
C   2.7667400000   -0.2270420000   0.0126500000
C   2.8423620000   -1.6441320000   0.4002200000
O   1.9025920000   -2.4012240000   0.5184510000
O   4.0957370000   -2.0792030000   0.6177850000
H   -0.9938350000   -1.6118520000   -1.6722950000
H   -1.4541880000   -2.5246270000   -0.2436040000
H   -2.6789320000   -2.0949390000   -1.4312210000
H   -0.2799380000   2.0070640000   1.3754120000
H   -2.5618560000   2.8923830000   1.7087530000
H   -4.5156070000   1.6193710000   0.8554340000
H   0.4472840000   -1.2497040000   0.2241570000
H   0.5791920000   2.2549750000   -0.7521760000
H   2.6642210000   3.4424790000   -1.1731000000
H   4.8566300000   2.3184310000   -0.8360760000
H   4.8890360000   -0.0419790000   -0.1108950000
H   4.0269440000   -3.0135310000   0.8494530000
