25
test0006.xyz
C   -2.2016070000   1.0498960000   0.4964500000
C   -2.7571710000   -0.1204550000   -0.0189760000
C   -1.9028310000   -1.0647750000   -0.5794980000
C   -0.5307920000   -0.8601190000   -0.6036040000
C   0.0139290000   0.3051150000   -0.0776840000
C   -0.8357700000   1.2687810000   0.4560920000
C   1.4764670000   0.6273340000   -0.1690800000
O   1.8343130000   1.7509800000   -0.4706370000
N   2.3729710000   -0.3828350000   0.0416950000
C   3.7756400000   -0.0918980000   -0.1872620000
C   2.1166100000   -1.5670270000   0.8393500000
C   -4.2418320000   -0.3519970000   0.0403140000
H   -2.8531740000   1.8032200000   0.9221680000
H   -2.3169410000   -1.9687580000   -1.0082090000
H   0.1171310000   -1.6015500000   -1.0539110000
H   -0.4091070000   2.1923150000   0.8233570000
H   3.8680110000   0.6438050000   -0.9791460000
H   4.2515670000   0.3058430000   0.7134490000
H   4.2831340000   -1.0124310000   -0.4746980000
H   1.0981490000   -1.5728310000   1.2108860000
H   2.7934740000   -1.5791990000   1.6973390000
H   2.2884980000   -2.4756040000   0.2579460000
H   -4.5444710000   -1.1516660000   -0.6329960000
H   -4.5479380000   -0.6305690000   1.0499980000
H   -4.7894980000   0.5502960000   -0.2295540000
