18
test1035.xyz
C   -1.2394420000   0.4704770000   0.4303470000
H   -1.2025680000   0.5869730000   1.5138140000
Cl   -2.7489890000   1.2491860000   -0.0853380000
C   -0.0000010000   1.1413150000   -0.1670860000
H   -0.0000020000   1.0660660000   -1.2533600000
Cl   -0.0000040000   2.8713800000   0.2471950000
C   1.2394410000   0.4704800000   0.4303470000
Cl   2.7489860000   1.2491930000   -0.0853380000
H   1.2025670000   0.5869760000   1.5138140000
C   1.2933750000   -1.0285830000   0.1346180000
Cl   1.6416790000   -1.3642740000   -1.5844160000
H   2.1236010000   -1.4618630000   0.6853000000
C   0.0000030000   -1.7313790000   0.5598800000
H   0.0000040000   -2.7555010000   0.2003670000
Cl   0.0000030000   -1.8366850000   2.3581020000
C   -1.2933720000   -1.0285870000   0.1346180000
H   -2.1235970000   -1.4618680000   0.6853010000
Cl   -1.6416760000   -1.3642780000   -1.5844150000
