9
test0017.xyz
C   1.1134690000   0.2961740000   0.0000000000
N   0.0000000000   1.0986660000   0.0000000000
C   -1.0850250000   0.2815910000   0.0000000000
N   -0.7390170000   -0.9771100000   0.0000000000
C   0.6335010000   -0.9800670000   0.0000000000
H   -0.0099060000   2.1028360000   0.0000000000
H   2.1102160000   0.6970680000   0.0000000000
H   -2.0930850000   0.6615700000   0.0000000000
H   1.1942240000   -1.8985590000   0.0000000000
