31
test1010.xyz
C   -5.3753850000   1.2908790000   -0.4962810000
H   -6.0333780000   2.1157030000   -0.7317090000
C   -4.0370520000   1.5222670000   -0.2640310000
H   -3.6092780000   2.5141070000   -0.3101950000
C   -3.2033140000   0.4453650000   0.0371530000
C   -3.7132700000   -0.8492920000   0.1017700000
C   -5.0717800000   -1.0771250000   -0.1362080000
H   -5.4435180000   -2.0906110000   -0.0808820000
C   -5.8908400000   -0.0104980000   -0.4325340000
H   -6.9427780000   -0.1777380000   -0.6189980000
C   -1.7802420000   0.6313700000   0.2837820000
O   -1.1806960000   1.6836770000   0.2576680000
N   -1.1304860000   -0.5654990000   0.5764480000
C   0.2941370000   -0.5544900000   0.8117460000
H   0.5442930000   -1.4056730000   1.4336720000
H   0.5621350000   0.3788500000   1.2921460000
S   1.1635950000   -0.7182560000   -0.8026980000
N   -1.6938210000   -1.8043190000   0.6192570000
N   -2.9118010000   -1.9529990000   0.4006980000
P   3.0798970000   -0.0239980000   -0.3413730000
O   3.0756880000   -0.2754700000   1.2378610000
C   4.2879190000   -0.0411060000   1.9656420000
H   4.6073740000   0.9945330000   1.8463760000
H   5.0685820000   -0.7092090000   1.6067480000
H   4.0637800000   -0.2449980000   3.0080530000
S   4.4582720000   -0.8225170000   -1.3822840000
O   3.0846980000   1.5559980000   -0.4735870000
C   2.1098670000   2.3759030000   0.1759160000
H   2.1500950000   2.2287480000   1.2566510000
H   1.1096620000   2.1519520000   -0.1933310000
H   2.3696900000   3.4031100000   -0.0603100000
