22
test0014.xyz
C   -0.1911470000   -4.1476480000   0.0000000000
C   0.6596930000   -2.8982460000   0.0000000000
O   -0.1911470000   -1.7758370000   0.0000000000
C   0.5087070000   -0.5592470000   0.0000000000
C   -0.5087070000   0.5592470000   0.0000000000
O   0.1911470000   1.7758370000   0.0000000000
C   -0.6596930000   2.8982460000   0.0000000000
C   0.1911470000   4.1476480000   0.0000000000
H   0.4379130000   -5.0369280000   0.0000000000
H   -0.8274170000   -4.1705720000   0.8834100000
H   -0.8274170000   -4.1705720000   -0.8834100000
H   1.3089360000   -2.8697430000   -0.8844560000
H   1.3089360000   -2.8697430000   0.8844560000
H   1.1493690000   -0.4758880000   -0.8865030000
H   1.1493690000   -0.4758880000   0.8865030000
H   -1.1493690000   0.4758880000   -0.8865030000
H   -1.1493690000   0.4758880000   0.8865030000
H   -1.3089360000   2.8697430000   -0.8844560000
H   -1.3089360000   2.8697430000   0.8844560000
H   0.8274170000   4.1705720000   -0.8834100000
H   -0.4379130000   5.0369280000   0.0000000000
H   0.8274170000   4.1705720000   0.8834100000
