39
test1056.xyz
C   0.4396620000   -0.1018050000   0.0000320000
N   1.7974920000   -0.1084190000   0.0788290000
C   2.5545830000   1.0265320000   0.6079760000
H   2.7830700000   1.7670800000   -0.1642370000
H   3.5108080000   0.6100970000   0.9313470000
C   1.9007650000   1.6870110000   1.8173070000
H   1.7170530000   0.9187810000   2.5713760000
H   0.9321110000   2.1153740000   1.5564700000
C   2.7932570000   2.7905780000   2.3722460000
H   2.9595670000   3.5667490000   1.6243040000
H   3.7651980000   2.3974750000   2.6728320000
H   2.3379680000   3.2591520000   3.2426050000
C   2.5751960000   -1.2623960000   -0.3586720000
H   1.8917230000   -2.0336340000   -0.7159490000
H   3.1267190000   -1.6838180000   0.4875810000
C   3.5252410000   -0.9066090000   -1.4990260000
H   4.2311290000   -0.1434830000   -1.1668700000
H   2.9460160000   -0.4655720000   -2.3123040000
C   4.2835960000   -2.1383920000   -1.9783800000
H   3.5975190000   -2.8991920000   -2.3525080000
H   4.8625000000   -2.5829330000   -1.1678200000
H   4.9726000000   -1.8861960000   -2.7823050000
C   -0.3043280000   1.0117610000   -0.4388320000
C   -1.6810510000   1.0589910000   -0.4750470000
H   -2.1696080000   1.9639940000   -0.8097570000
C   -2.4083660000   -0.0728270000   -0.1500850000
C   -3.9076800000   -0.0457720000   -0.1799140000
F   -4.4128000000   -1.2352800000   -0.5117360000
F   -4.3635860000   0.8528370000   -1.0551130000
F   -4.4192440000   0.2755080000   1.0143960000
C   -1.7411250000   -1.2177260000   0.2511790000
H   -2.2797330000   -2.1144020000   0.5260080000
C   -0.3666840000   -1.2041430000   0.3587380000
N   0.3810120000   2.1745040000   -1.0250610000
O   0.0217010000   3.2716690000   -0.6613720000
O   1.2231530000   1.9536450000   -1.8643720000
N   0.2228230000   -2.3811250000   1.0200530000
O   -0.2107520000   -3.4661470000   0.7048590000
O   1.0644420000   -2.1807900000   1.8645630000
