600
 OpenBabel08181812023D

  8  7  0  0  1  0  0  0  0  0999 V2000
    0.7657   -0.1008   -0.0299 C   0  0  2  0  0  0  0  0  0  0  0  0
   -0.7774   -0.0060   -0.0018 C   0  0  0  0  0  0  0  0  0  0  0  0
   -1.2239    0.7274    1.0308 F   0  0  0  0  0  0  0  0  0  0  0  0
   -1.2904   -1.2540    0.1083 F   0  0  0  0  0  0  0  0  0  0  0  0
   -1.2335    0.5340   -1.1518 F   0  0  0  0  0  0  0  0  0  0  0  0
    1.1851   -0.7000    1.1258 F   0  0  0  0  0  0  0  0  0  0  0  0
    1.4956    1.5072   -0.1920 Cl  0  0  0  0  0  0  0  0  0  0  0  0
    1.0788   -0.7078   -0.8893 H   0  0  0  0  0  0  0  0  0  0  0  0
  1  8  1  6  0  0  0
  1  2  1  0  0  0  0
  1  6  1  0  0  0  0
  2  4  1  0  0  0  0
  2  3  1  0  0  0  0
  5  2  1  0  0  0  0
  7  1  1  0  0  0  0
M  END
