183
 OpenBabel08181812023D

  8  7  0  0  0  0  0  0  0  0999 V2000
   -0.7489   -0.0679   -0.2437 C   0  0  0  0  0  0  0  0  0  0  0  0
    0.6874    0.1673    0.1878 C   0  0  0  0  0  0  0  0  0  0  0  0
    1.4583   -1.3206    0.7971 Cl  0  0  0  0  0  0  0  0  0  0  0  0
    1.5841    0.8200   -1.2267 Cl  0  0  0  0  0  0  0  0  0  0  0  0
   -1.7913   -0.4707    1.1568 Cl  0  0  0  0  0  0  0  0  0  0  0  0
   -0.8068   -0.8914   -0.9627 H   0  0  0  0  0  0  0  0  0  0  0  0
   -1.1453    0.8496   -0.6917 H   0  0  0  0  0  0  0  0  0  0  0  0
    0.7626    0.9137    0.9833 H   0  0  0  0  0  0  0  0  0  0  0  0
  1  2  1  0  0  0  0
  1  5  1  0  0  0  0
  2  3  1  0  0  0  0
  2  8  1  0  0  0  0
  4  2  1  0  0  0  0
  6  1  1  0  0  0  0
  7  1  1  0  0  0  0
M  END
