168
 OpenBabel08181812023D

  8  7  0  0  0  0  0  0  0  0999 V2000
    0.8520    0.0459    0.0041 C   0  0  0  0  0  0  0  0  0  0  0  0
   -0.6607   -0.0355   -0.0031 C   0  0  0  0  0  0  0  0  0  0  0  0
   -1.2038   -1.3823   -1.0597 Cl  0  0  0  0  0  0  0  0  0  0  0  0
   -1.2738   -0.3235    1.6601 Cl  0  0  0  0  0  0  0  0  0  0  0  0
   -1.3610    1.4993   -0.6187 Cl  0  0  0  0  0  0  0  0  0  0  0  0
    1.1694    0.8709    0.6520 H   0  0  0  0  0  0  0  0  0  0  0  0
    1.2657   -0.8963    0.3815 H   0  0  0  0  0  0  0  0  0  0  0  0
    1.2123    0.2216   -1.0159 H   0  0  0  0  0  0  0  0  0  0  0  0
  1  7  1  0  0  0  0
  1  6  1  0  0  0  0
  2  1  1  0  0  0  0
  2  4  1  0  0  0  0
  3  2  1  0  0  0  0
  5  2  1  0  0  0  0
  8  1  1  0  0  0  0
M  END
