424
 OpenBabel08181812023D

  8  7  0  0  0  0  0  0  0  0999 V2000
   -0.7803   -0.1458   -0.0990 C   0  0  0  0  0  0  0  0  0  0  0  0
    0.7586    0.0926    0.1400 C   0  0  0  0  0  0  0  0  0  0  0  0
    0.9329    0.4608    1.4322 F   0  0  0  0  0  0  0  0  0  0  0  0
    1.6312   -1.4304   -0.1467 Cl  0  0  0  0  0  0  0  0  0  0  0  0
    1.3665    1.3713   -0.9257 Cl  0  0  0  0  0  0  0  0  0  0  0  0
   -0.9931   -0.5119   -1.3775 F   0  0  0  0  0  0  0  0  0  0  0  0
   -1.1926   -1.1499    0.7045 F   0  0  0  0  0  0  0  0  0  0  0  0
   -1.7231    1.3133    0.2722 Cl  0  0  0  0  0  0  0  0  0  0  0  0
  1  2  1  0  0  0  0
  1  8  1  0  0  0  0
  1  7  1  0  0  0  0
  2  3  1  0  0  0  0
  4  2  1  0  0  0  0
  5  2  1  0  0  0  0
  6  1  1  0  0  0  0
M  END
