042
 OpenBabel08181812023D

  6  5  0  0  0  0  0  0  0  0999 V2000
   -0.7599   -0.1557    0.1807 C   0  0  0  0  0  0  0  0  0  0  0  0
    0.5111    0.1048   -0.1213 C   0  0  0  0  0  0  0  0  0  0  0  0
    1.7835   -1.0488    0.0914 Cl  0  0  0  0  0  0  0  0  0  0  0  0
    1.0326    1.6258   -0.7614 Cl  0  0  0  0  0  0  0  0  0  0  0  0
   -1.5261    0.6006    0.0299 H   0  0  0  0  0  0  0  0  0  0  0  0
   -1.0411   -1.1266    0.5807 H   0  0  0  0  0  0  0  0  0  0  0  0
  1  6  1  0  0  0  0
  2  3  1  0  0  0  0
  2  1  2  0  0  0  0
  4  2  1  0  0  0  0
  5  1  1  0  0  0  0
M  END
