164
 OpenBabel08181812023D

 12 11  0  0  1  0  0  0  0  0999 V2000
   -0.1829   -0.3546    0.4290 C   0  0  0  0  0  0  0  0  0  0  0  0
   -1.5575   -0.2440   -0.2122 C   0  0  0  0  0  0  0  0  0  0  0  0
   -2.3337    1.3752   -0.0601 Cl  0  0  0  0  0  0  0  0  0  0  0  0
    0.9833    0.2248   -0.3576 C   0  0  2  0  0  0  0  0  0  0  0  0
    2.1519   -0.3689    0.1190 O   0  0  0  0  0  0  0  0  0  0  0  0
    1.0937    2.0535   -0.1922 Cl  0  0  0  0  0  0  0  0  0  0  0  0
   -0.1846    0.0564    1.4469 H   0  0  0  0  0  0  0  0  0  0  0  0
    0.0371   -1.4318    0.5179 H   0  0  0  0  0  0  0  0  0  0  0  0
   -1.5218   -0.4708   -1.2849 H   0  0  0  0  0  0  0  0  0  0  0  0
   -2.2475   -0.9456    0.2674 H   0  0  0  0  0  0  0  0  0  0  0  0
    0.8553    0.0834   -1.4421 H   0  0  0  0  0  0  0  0  0  0  0  0
    2.9067    0.0226   -0.3510 H   0  0  0  0  0  0  0  0  0  0  0  0
  1  8  1  0  0  0  0
  1  7  1  0  0  0  0
  2  3  1  0  0  0  0
  2 10  1  0  0  0  0
  2  1  1  0  0  0  0
  4 11  1  6  0  0  0
  4  6  1  0  0  0  0
  4  5  1  0  0  0  0
  4  1  1  0  0  0  0
  9  2  1  0  0  0  0
 12  5  1  0  0  0  0
M  END
