177
 OpenBabel08181812023D

 24 24  0  0  0  0  0  0  0  0999 V2000
    3.4636    1.0149   -0.4230 C   0  0  0  0  0  0  0  0  0  0  0  0
    2.9423   -0.3844   -0.0617 C   0  0  0  0  0  0  0  0  0  0  0  0
    1.4357   -0.4491    0.0122 C   0  0  0  0  0  0  0  0  0  0  0  0
    0.7560   -0.1801    1.2072 C   0  0  0  0  0  0  0  0  0  0  0  0
   -0.6377   -0.2081    1.2666 C   0  0  0  0  0  0  0  0  0  0  0  0
   -1.4055   -0.5068    0.1337 C   0  0  0  0  0  0  0  0  0  0  0  0
   -0.7253   -0.7806   -1.0607 C   0  0  0  0  0  0  0  0  0  0  0  0
    0.6677   -0.7520   -1.1203 C   0  0  0  0  0  0  0  0  0  0  0  0
   -2.9143   -0.5029    0.1879 C   0  0  0  0  0  0  0  0  0  0  0  0
   -3.5225    0.8524   -0.2039 C   0  0  0  0  0  0  0  0  0  0  0  0
    3.0737    1.3401   -1.3973 H   0  0  0  0  0  0  0  0  0  0  0  0
    4.5611    1.0265   -0.4738 H   0  0  0  0  0  0  0  0  0  0  0  0
    3.1492    1.7568    0.3235 H   0  0  0  0  0  0  0  0  0  0  0  0
    3.3690   -0.6922    0.9050 H   0  0  0  0  0  0  0  0  0  0  0  0
    3.3022   -1.1091   -0.8077 H   0  0  0  0  0  0  0  0  0  0  0  0
    1.3281    0.0426    2.1104 H   0  0  0  0  0  0  0  0  0  0  0  0
   -1.1397   -0.0057    2.2152 H   0  0  0  0  0  0  0  0  0  0  0  0
   -1.2969   -1.0316   -1.9570 H   0  0  0  0  0  0  0  0  0  0  0  0
    1.1707   -0.9809   -2.0624 H   0  0  0  0  0  0  0  0  0  0  0  0
   -3.3060   -1.2830   -0.4825 H   0  0  0  0  0  0  0  0  0  0  0  0
   -3.2433   -0.7691    1.2036 H   0  0  0  0  0  0  0  0  0  0  0  0
   -4.6197    0.8213   -0.1575 H   0  0  0  0  0  0  0  0  0  0  0  0
   -3.1749    1.6482    0.4688 H   0  0  0  0  0  0  0  0  0  0  0  0
   -3.2328    1.1327   -1.2257 H   0  0  0  0  0  0  0  0  0  0  0  0
  1  2  1  0  0  0  0
  1 13  1  0  0  0  0
  2  3  1  0  0  0  0
  2 14  1  0  0  0  0
  3  4  2  0  0  0  0
  4  5  1  0  0  0  0
  4 16  1  0  0  0  0
  5 17  1  0  0  0  0
  6  9  1  0  0  0  0
  6  5  2  0  0  0  0
  7  6  1  0  0  0  0
  8  7  2  0  0  0  0
  8  3  1  0  0  0  0
  9 21  1  0  0  0  0
 10 22  1  0  0  0  0
 10  9  1  0  0  0  0
 10 23  1  0  0  0  0
 11  1  1  0  0  0  0
 12  1  1  0  0  0  0
 15  2  1  0  0  0  0
 18  7  1  0  0  0  0
 19  8  1  0  0  0  0
 20  9  1  0  0  0  0
 24 10  1  0  0  0  0
M  END
