055
 OpenBabel08181812023D

 14 14  0  0  0  0  0  0  0  0999 V2000
    1.4352    0.1149   -0.2613 C   0  0  0  0  0  0  0  0  0  0  0  0
    0.5967   -1.1626   -0.1220 C   0  0  0  0  0  0  0  0  0  0  0  0
   -0.6375   -1.0174   -0.8128 O   0  0  0  0  0  0  0  0  0  0  0  0
   -1.4456    0.0135   -0.2264 C   0  0  0  0  0  0  0  0  0  0  0  0
   -0.5888    1.0657    0.4901 C   0  0  0  0  0  0  0  0  0  0  0  0
    0.6152    1.2924   -0.2313 O   0  0  0  0  0  0  0  0  0  0  0  0
    2.1946    0.1570    0.5439 H   0  0  0  0  0  0  0  0  0  0  0  0
    1.9528    0.1358   -1.2302 H   0  0  0  0  0  0  0  0  0  0  0  0
    1.1196   -2.0126   -0.5793 H   0  0  0  0  0  0  0  0  0  0  0  0
    0.4224   -1.4135    0.9415 H   0  0  0  0  0  0  0  0  0  0  0  0
   -2.0016    0.4668   -1.0585 H   0  0  0  0  0  0  0  0  0  0  0  0
   -2.1727   -0.4276    0.4833 H   0  0  0  0  0  0  0  0  0  0  0  0
   -0.3696    0.7623    1.5314 H   0  0  0  0  0  0  0  0  0  0  0  0
   -1.1206    2.0252    0.5318 H   0  0  0  0  0  0  0  0  0  0  0  0
  1  6  1  0  0  0  0
  1  2  1  0  0  0  0
  1  7  1  0  0  0  0
  2 10  1  0  0  0  0
  3  4  1  0  0  0  0
  3  2  1  0  0  0  0
  4 12  1  0  0  0  0
  4  5  1  0  0  0  0
  5 14  1  0  0  0  0
  5 13  1  0  0  0  0
  6  5  1  0  0  0  0
  8  1  1  0  0  0  0
  9  2  1  0  0  0  0
 11  4  1  0  0  0  0
M  END
