281
 OpenBabel08181812023D

 12 12  0  0  0  0  0  0  0  0999 V2000
    0.6311   -1.2473    0.0695 C   0  0  0  0  0  0  0  0  0  0  0  0
   -0.7613   -1.1736    0.0450 C   0  0  0  0  0  0  0  0  0  0  0  0
   -1.3839    0.0733   -0.0243 C   0  0  0  0  0  0  0  0  0  0  0  0
   -0.6311    1.2473   -0.0695 C   0  0  0  0  0  0  0  0  0  0  0  0
    0.7613    1.1736   -0.0450 C   0  0  0  0  0  0  0  0  0  0  0  0
    1.3839   -0.0733    0.0243 C   0  0  0  0  0  0  0  0  0  0  0  0
    3.1220   -0.1654    0.0550 Cl  0  0  0  0  0  0  0  0  0  0  0  0
   -3.1220    0.1654   -0.0550 Cl  0  0  0  0  0  0  0  0  0  0  0  0
    1.1299   -2.2132    0.1235 H   0  0  0  0  0  0  0  0  0  0  0  0
   -1.3609   -2.0813    0.0797 H   0  0  0  0  0  0  0  0  0  0  0  0
   -1.1299    2.2132   -0.1235 H   0  0  0  0  0  0  0  0  0  0  0  0
    1.3609    2.0813   -0.0797 H   0  0  0  0  0  0  0  0  0  0  0  0
  1  9  1  0  0  0  0
  2  1  1  0  0  0  0
  2 10  1  0  0  0  0
  3  2  2  0  0  0  0
  4  5  2  0  0  0  0
  4  3  1  0  0  0  0
  5  6  1  0  0  0  0
  6  7  1  0  0  0  0
  6  1  2  0  0  0  0
  8  3  1  0  0  0  0
 11  4  1  0  0  0  0
 12  5  1  0  0  0  0
M  END
