160
 OpenBabel08181812023D

 14 13  0  0  0  0  0  0  0  0999 V2000
   -1.9321   -0.3978    0.1399 C   0  0  0  0  0  0  0  0  0  0  0  0
   -0.7138    0.2095   -0.5562 C   0  0  0  0  0  0  0  0  0  0  0  0
    0.6063   -0.1822    0.1222 C   0  0  0  0  0  0  0  0  0  0  0  0
    1.7985    0.4308   -0.5849 C   0  0  0  0  0  0  0  0  0  0  0  0
    3.5061   -0.0641    0.2770 Br  0  0  0  0  0  0  0  0  0  0  0  0
   -1.8822   -1.4957    0.1410 H   0  0  0  0  0  0  0  0  0  0  0  0
   -2.8651   -0.1063   -0.3600 H   0  0  0  0  0  0  0  0  0  0  0  0
   -1.9964   -0.0683    1.1865 H   0  0  0  0  0  0  0  0  0  0  0  0
   -0.8053    1.3074   -0.5715 H   0  0  0  0  0  0  0  0  0  0  0  0
   -0.6921   -0.1104   -1.6103 H   0  0  0  0  0  0  0  0  0  0  0  0
    0.7082   -1.2778    0.1331 H   0  0  0  0  0  0  0  0  0  0  0  0
    0.5950    0.1427    1.1735 H   0  0  0  0  0  0  0  0  0  0  0  0
    1.7791    1.5254   -0.5662 H   0  0  0  0  0  0  0  0  0  0  0  0
    1.8940    0.0867   -1.6199 H   0  0  0  0  0  0  0  0  0  0  0  0
  1  6  1  0  0  0  0
  1  8  1  0  0  0  0
  2  3  1  0  0  0  0
  2  1  1  0  0  0  0
  3 11  1  0  0  0  0
  3 12  1  0  0  0  0
  4 13  1  0  0  0  0
  4  3  1  0  0  0  0
  4  5  1  0  0  0  0
  7  1  1  0  0  0  0
  9  2  1  0  0  0  0
 10  2  1  0  0  0  0
 14  4  1  0  0  0  0
M  END
