409
 OpenBabel08181812023D

 11 10  0  0  0  0  0  0  0  0999 V2000
   -1.1146    0.3783   -0.5868 C   0  0  0  0  0  0  0  0  0  0  0  0
   -0.2806   -0.3400    0.4710 C   0  0  0  0  0  0  0  0  0  0  0  0
    1.2140   -0.3238    0.2150 C   0  0  0  0  0  0  0  0  0  0  0  0
    1.9869    1.4966    0.3308 Br  0  0  0  0  0  0  0  0  0  0  0  0
   -0.8494    1.4420   -0.6412 H   0  0  0  0  0  0  0  0  0  0  0  0
   -2.1853    0.3072   -0.3564 H   0  0  0  0  0  0  0  0  0  0  0  0
   -0.9553   -0.0598   -1.5825 H   0  0  0  0  0  0  0  0  0  0  0  0
   -0.5746   -1.4036    0.5166 H   0  0  0  0  0  0  0  0  0  0  0  0
   -0.4826    0.0776    1.4684 H   0  0  0  0  0  0  0  0  0  0  0  0
    1.4708   -0.6710   -0.7918 H   0  0  0  0  0  0  0  0  0  0  0  0
    1.7706   -0.9037    0.9569 H   0  0  0  0  0  0  0  0  0  0  0  0
  1  6  1  0  0  0  0
  1  2  1  0  0  0  0
  2  8  1  0  0  0  0
  2  9  1  0  0  0  0
  3  4  1  0  0  0  0
  3  2  1  0  0  0  0
  3 11  1  0  0  0  0
  5  1  1  0  0  0  0
  7  1  1  0  0  0  0
 10  3  1  0  0  0  0
M  END
