416
 OpenBabel08181812023D

 14 13  0  0  0  0  0  0  0  0999 V2000
   -0.3591    1.2377    0.6803 C   0  0  0  0  0  0  0  0  0  0  0  0
    0.1256    0.1860   -0.3188 C   0  0  0  0  0  0  0  0  0  0  0  0
    1.4056   -0.5046    0.1788 C   0  0  0  0  0  0  0  0  0  0  0  0
   -0.9202   -0.8868   -0.5929 C   0  0  0  0  0  0  0  0  0  0  0  0
   -2.5414   -0.1903   -1.4873 Br  0  0  0  0  0  0  0  0  0  0  0  0
   -1.2706    1.7353    0.3264 H   0  0  0  0  0  0  0  0  0  0  0  0
    0.4098    2.0053    0.8401 H   0  0  0  0  0  0  0  0  0  0  0  0
   -0.5800    0.7761    1.6548 H   0  0  0  0  0  0  0  0  0  0  0  0
    0.3526    0.6846   -1.2751 H   0  0  0  0  0  0  0  0  0  0  0  0
    1.7857   -1.2329   -0.5508 H   0  0  0  0  0  0  0  0  0  0  0  0
    1.2263   -1.0343    1.1262 H   0  0  0  0  0  0  0  0  0  0  0  0
    2.1953    0.2374    0.3580 H   0  0  0  0  0  0  0  0  0  0  0  0
   -0.5463   -1.6609   -1.2704 H   0  0  0  0  0  0  0  0  0  0  0  0
   -1.2834   -1.3528    0.3309 H   0  0  0  0  0  0  0  0  0  0  0  0
  1  7  1  0  0  0  0
  1  8  1  0  0  0  0
  2  3  1  0  0  0  0
  2  1  1  0  0  0  0
  3 12  1  0  0  0  0
  3 11  1  0  0  0  0
  4  2  1  0  0  0  0
  4 14  1  0  0  0  0
  5  4  1  0  0  0  0
  6  1  1  0  0  0  0
  9  2  1  0  0  0  0
 10  3  1  0  0  0  0
 13  4  1  0  0  0  0
M  END
