122
 OpenBabel08181812023D

 12 11  0  0  0  0  0  0  0  0999 V2000
    1.5703    0.4103   -0.2105 C   0  0  0  0  0  0  0  0  0  0  0  0
    0.3809   -0.0762    0.6296 C   0  0  0  0  0  0  0  0  0  0  0  0
   -0.7578   -0.5734   -0.2094 C   0  0  0  0  0  0  0  0  0  0  0  0
   -1.9961   -0.0739   -0.2092 C   0  0  0  0  0  0  0  0  0  0  0  0
    1.9406   -0.3855   -0.8720 H   0  0  0  0  0  0  0  0  0  0  0  0
    2.4039    0.7274    0.4303 H   0  0  0  0  0  0  0  0  0  0  0  0
    1.2825    1.2609   -0.8427 H   0  0  0  0  0  0  0  0  0  0  0  0
    0.7243   -0.8918    1.2889 H   0  0  0  0  0  0  0  0  0  0  0  0
    0.0271    0.7312    1.2883 H   0  0  0  0  0  0  0  0  0  0  0  0
   -0.5256   -1.4091   -0.8795 H   0  0  0  0  0  0  0  0  0  0  0  0
   -2.2737    0.7608    0.4380 H   0  0  0  0  0  0  0  0  0  0  0  0
   -2.7767   -0.4808   -0.8519 H   0  0  0  0  0  0  0  0  0  0  0  0
  1  6  1  0  0  0  0
  1  2  1  0  0  0  0
  2  9  1  0  0  0  0
  2  8  1  0  0  0  0
  3  4  2  0  0  0  0
  3  2  1  0  0  0  0
  4 11  1  0  0  0  0
  5  1  1  0  0  0  0
  7  1  1  0  0  0  0
 10  3  1  0  0  0  0
 12  4  1  0  0  0  0
M  END
