407
 OpenBabel08181812023D

 14 13  0  0  0  0  0  0  0  0999 V2000
    1.4721   -0.2458   -0.0457 C   0  0  0  0  0  0  0  0  0  0  0  0
    0.0220    0.0030    0.3923 C   0  0  0  0  0  0  0  0  0  0  0  0
   -0.4669    1.3809   -0.0575 C   0  0  0  0  0  0  0  0  0  0  0  0
   -0.8503   -1.1263   -0.1487 C   0  0  0  0  0  0  0  0  0  0  0  0
   -2.5466   -1.0717    0.4757 Cl  0  0  0  0  0  0  0  0  0  0  0  0
    1.5632   -0.2261   -1.1421 H   0  0  0  0  0  0  0  0  0  0  0  0
    2.1335    0.5340    0.3550 H   0  0  0  0  0  0  0  0  0  0  0  0
    1.8441   -1.2176    0.3079 H   0  0  0  0  0  0  0  0  0  0  0  0
   -0.0219   -0.0453    1.4927 H   0  0  0  0  0  0  0  0  0  0  0  0
   -0.4218    1.4713   -1.1536 H   0  0  0  0  0  0  0  0  0  0  0  0
   -1.5032    1.5591    0.2553 H   0  0  0  0  0  0  0  0  0  0  0  0
    0.1606    2.1745    0.3698 H   0  0  0  0  0  0  0  0  0  0  0  0
   -0.4583   -2.1077    0.1420 H   0  0  0  0  0  0  0  0  0  0  0  0
   -0.9262   -1.0826   -1.2432 H   0  0  0  0  0  0  0  0  0  0  0  0
  1  8  1  0  0  0  0
  1  7  1  0  0  0  0
  1  2  1  0  0  0  0
  2  9  1  0  0  0  0
  3 11  1  0  0  0  0
  3 12  1  0  0  0  0
  3  2  1  0  0  0  0
  4 13  1  0  0  0  0
  4  2  1  0  0  0  0
  4  5  1  0  0  0  0
  6  1  1  0  0  0  0
 10  3  1  0  0  0  0
 14  4  1  0  0  0  0
M  END
