249
 OpenBabel08181812023D

 17 16  0  0  0  0  0  0  0  0999 V2000
   -2.4280    0.1017    0.4145 C   0  0  0  0  0  0  0  0  0  0  0  0
   -1.0518    0.4389   -0.1596 C   0  0  0  0  0  0  0  0  0  0  0  0
   -0.0673   -0.7288   -0.0389 C   0  0  0  0  0  0  0  0  0  0  0  0
    1.3072   -0.5339   -0.6937 C   0  0  0  0  0  0  0  0  0  0  0  0
    2.2923    0.3763    0.0260 C   0  0  0  0  0  0  0  0  0  0  0  0
    1.9661    2.1472   -0.1893 Cl  0  0  0  0  0  0  0  0  0  0  0  0
   -2.8813   -0.7543   -0.1070 H   0  0  0  0  0  0  0  0  0  0  0  0
   -2.3618   -0.1595    1.4810 H   0  0  0  0  0  0  0  0  0  0  0  0
   -3.1189    0.9508    0.3242 H   0  0  0  0  0  0  0  0  0  0  0  0
   -0.6467    1.3266    0.3451 H   0  0  0  0  0  0  0  0  0  0  0  0
   -1.1512    0.7156   -1.2217 H   0  0  0  0  0  0  0  0  0  0  0  0
   -0.5313   -1.6201   -0.4931 H   0  0  0  0  0  0  0  0  0  0  0  0
    0.0747   -0.9795    1.0268 H   0  0  0  0  0  0  0  0  0  0  0  0
    1.8045   -1.5179   -0.7476 H   0  0  0  0  0  0  0  0  0  0  0  0
    1.1931   -0.1947   -1.7350 H   0  0  0  0  0  0  0  0  0  0  0  0
    2.2911    0.2000    1.1087 H   0  0  0  0  0  0  0  0  0  0  0  0
    3.3093    0.2314   -0.3534 H   0  0  0  0  0  0  0  0  0  0  0  0
  1  8  1  0  0  0  0
  2  3  1  0  0  0  0
  2 10  1  0  0  0  0
  2  1  1  0  0  0  0
  3 13  1  0  0  0  0
  4  3  1  0  0  0  0
  4  5  1  0  0  0  0
  5 16  1  0  0  0  0
  6  5  1  0  0  0  0
  7  1  1  0  0  0  0
  9  1  1  0  0  0  0
 11  2  1  0  0  0  0
 12  3  1  0  0  0  0
 14  4  1  0  0  0  0
 15  4  1  0  0  0  0
 17  5  1  0  0  0  0
M  END
