125
 OpenBabel08181812023D

 14 13  0  0  0  0  0  0  0  0999 V2000
   -1.9697   -0.1540    0.0225 C   0  0  0  0  0  0  0  0  0  0  0  0
   -0.5469   -0.1363   -0.5351 C   0  0  0  0  0  0  0  0  0  0  0  0
    0.5096    0.0661    0.5516 C   0  0  0  0  0  0  0  0  0  0  0  0
    1.9435    0.0670    0.0511 C   0  0  0  0  0  0  0  0  0  0  0  0
    2.3016    1.4851   -1.0183 Cl  0  0  0  0  0  0  0  0  0  0  0  0
   -2.7101   -0.3056   -0.7740 H   0  0  0  0  0  0  0  0  0  0  0  0
   -2.2107    0.7942    0.5240 H   0  0  0  0  0  0  0  0  0  0  0  0
   -2.1023   -0.9604    0.7585 H   0  0  0  0  0  0  0  0  0  0  0  0
   -0.4492    0.6631   -1.2842 H   0  0  0  0  0  0  0  0  0  0  0  0
   -0.3422   -1.0814   -1.0645 H   0  0  0  0  0  0  0  0  0  0  0  0
    0.4323   -0.7476    1.2947 H   0  0  0  0  0  0  0  0  0  0  0  0
    0.3161    1.0030    1.0972 H   0  0  0  0  0  0  0  0  0  0  0  0
    2.6615    0.1307    0.8757 H   0  0  0  0  0  0  0  0  0  0  0  0
    2.1665   -0.8239   -0.5488 H   0  0  0  0  0  0  0  0  0  0  0  0
  1  7  1  0  0  0  0
  1  8  1  0  0  0  0
  2  1  1  0  0  0  0
  2  3  1  0  0  0  0
  3 12  1  0  0  0  0
  3 11  1  0  0  0  0
  4  3  1  0  0  0  0
  4 13  1  0  0  0  0
  5  4  1  0  0  0  0
  6  1  1  0  0  0  0
  9  2  1  0  0  0  0
 10  2  1  0  0  0  0
 14  4  1  0  0  0  0
M  END
