420
 OpenBabel08181812023D

 17 16  0  0  0  0  0  0  0  0999 V2000
   -2.0068   -0.1505   -0.4884 C   0  0  0  0  0  0  0  0  0  0  0  0
   -0.9971    0.8789    0.0228 C   0  0  0  0  0  0  0  0  0  0  0  0
    0.0480    0.3147    0.9942 C   0  0  0  0  0  0  0  0  0  0  0  0
    0.9688   -0.7693    0.4219 C   0  0  0  0  0  0  0  0  0  0  0  0
    1.7932   -0.3746   -0.7893 C   0  0  0  0  0  0  0  0  0  0  0  0
    3.2263    1.2320   -0.3840 I   0  0  0  0  0  0  0  0  0  0  0  0
   -2.5362   -0.6339    0.3458 H   0  0  0  0  0  0  0  0  0  0  0  0
   -1.5271   -0.9448   -1.0774 H   0  0  0  0  0  0  0  0  0  0  0  0
   -2.7616    0.3195   -1.1327 H   0  0  0  0  0  0  0  0  0  0  0  0
   -1.5373    1.6887    0.5366 H   0  0  0  0  0  0  0  0  0  0  0  0
   -0.4926    1.3619   -0.8294 H   0  0  0  0  0  0  0  0  0  0  0  0
   -0.4679   -0.1055    1.8725 H   0  0  0  0  0  0  0  0  0  0  0  0
    0.6722    1.1404    1.3695 H   0  0  0  0  0  0  0  0  0  0  0  0
    0.3671   -1.6420    0.1097 H   0  0  0  0  0  0  0  0  0  0  0  0
    1.6380   -1.1336    1.2149 H   0  0  0  0  0  0  0  0  0  0  0  0
    1.1919    0.0123   -1.6171 H   0  0  0  0  0  0  0  0  0  0  0  0
    2.4213   -1.1942   -1.1481 H   0  0  0  0  0  0  0  0  0  0  0  0
  1  2  1  0  0  0  0
  1  7  1  0  0  0  0
  2 10  1  0  0  0  0
  2  3  1  0  0  0  0
  3 13  1  0  0  0  0
  3 12  1  0  0  0  0
  4  3  1  0  0  0  0
  4 15  1  0  0  0  0
  5  6  1  0  0  0  0
  5  4  1  0  0  0  0
  8  1  1  0  0  0  0
  9  1  1  0  0  0  0
 11  2  1  0  0  0  0
 14  4  1  0  0  0  0
 16  5  1  0  0  0  0
 17  5  1  0  0  0  0
M  END
