451
 OpenBabel08181812023D

 18 17  0  0  0  0  0  0  0  0999 V2000
   -2.7467   -0.5249   -0.4460 C   0  0  0  0  0  0  0  0  0  0  0  0
   -1.2237   -0.4651   -0.5590 C   0  0  0  0  0  0  0  0  0  0  0  0
   -0.6116    0.6740    0.2599 C   0  0  0  0  0  0  0  0  0  0  0  0
    0.9000    0.7810    0.1385 C   0  0  0  0  0  0  0  0  0  0  0  0
    1.5020   -0.3856    0.6889 O   0  0  0  0  0  0  0  0  0  0  0  0
    2.9121   -0.3605    0.5793 C   0  0  0  0  0  0  0  0  0  0  0  0
   -3.1626   -1.3488   -1.0417 H   0  0  0  0  0  0  0  0  0  0  0  0
   -3.2109    0.4082   -0.7983 H   0  0  0  0  0  0  0  0  0  0  0  0
   -3.0621   -0.6767    0.5965 H   0  0  0  0  0  0  0  0  0  0  0  0
   -0.9353   -0.3424   -1.6163 H   0  0  0  0  0  0  0  0  0  0  0  0
   -0.7856   -1.4185   -0.2300 H   0  0  0  0  0  0  0  0  0  0  0  0
   -1.0452    1.6362   -0.0596 H   0  0  0  0  0  0  0  0  0  0  0  0
   -0.8720    0.5515    1.3238 H   0  0  0  0  0  0  0  0  0  0  0  0
    1.1950    0.8874   -0.9260 H   0  0  0  0  0  0  0  0  0  0  0  0
    1.2689    1.6795    0.6722 H   0  0  0  0  0  0  0  0  0  0  0  0
    3.2926   -1.2839    1.0321 H   0  0  0  0  0  0  0  0  0  0  0  0
    3.3472    0.5062    1.1117 H   0  0  0  0  0  0  0  0  0  0  0  0
    3.2377   -0.3175   -0.4771 H   0  0  0  0  0  0  0  0  0  0  0  0
  1  9  1  0  0  0  0
  2  1  1  0  0  0  0
  2 11  1  0  0  0  0
  2  3  1  0  0  0  0
  3 13  1  0  0  0  0
  4  3  1  0  0  0  0
  4 15  1  0  0  0  0
  4  5  1  0  0  0  0
  6  5  1  0  0  0  0
  6 16  1  0  0  0  0
  6 17  1  0  0  0  0
  7  1  1  0  0  0  0
  8  1  1  0  0  0  0
 10  2  1  0  0  0  0
 12  3  1  0  0  0  0
 14  4  1  0  0  0  0
 18  6  1  0  0  0  0
M  END
