212
 OpenBabel08181812023D

 13 12  0  0  0  0  0  0  0  0999 V2000
   -1.3531    0.6309    0.4110 C   0  0  0  0  0  0  0  0  0  0  0  0
   -0.6709   -0.4399   -0.4393 C   0  0  0  0  0  0  0  0  0  0  0  0
    0.8030   -0.1657   -0.6960 C   0  0  0  0  0  0  0  0  0  0  0  0
    1.6271   -0.2170    0.5830 N   0  0  0  0  0  0  0  0  0  0  0  0
    2.4411    0.6860    0.7651 O   0  0  0  0  0  0  0  0  0  0  0  0
    1.4353   -1.1686    1.3370 O   0  0  0  0  0  0  0  0  0  0  0  0
   -1.2771    1.6227   -0.0562 H   0  0  0  0  0  0  0  0  0  0  0  0
   -0.9055    0.6940    1.4121 H   0  0  0  0  0  0  0  0  0  0  0  0
   -2.4184    0.4027    0.5414 H   0  0  0  0  0  0  0  0  0  0  0  0
   -0.7691   -1.4281    0.0300 H   0  0  0  0  0  0  0  0  0  0  0  0
   -1.1554   -0.5080   -1.4253 H   0  0  0  0  0  0  0  0  0  0  0  0
    1.2511   -0.9337   -1.3405 H   0  0  0  0  0  0  0  0  0  0  0  0
    0.9917    0.8248   -1.1224 H   0  0  0  0  0  0  0  0  0  0  0  0
  1  9  1  0  0  0  0
  1  8  1  0  0  0  0
  2 10  1  0  0  0  0
  2  1  1  0  0  0  0
  3  2  1  0  0  0  0
  3  4  1  0  0  0  0
  4  5  2  0  0  0  0
  4  6  2  0  0  0  0
  7  1  1  0  0  0  0
 11  2  1  0  0  0  0
 12  3  1  0  0  0  0
 13  3  1  0  0  0  0
M  END
