352
 OpenBabel08181812023D

 25 24  0  0  0  0  0  0  0  0999 V2000
   -3.6211    1.2626    0.6567 C   0  0  0  0  0  0  0  0  0  0  0  0
   -2.8640    0.0510    0.1127 C   0  0  0  0  0  0  0  0  0  0  0  0
   -1.3435    0.2271    0.1352 C   0  0  0  0  0  0  0  0  0  0  0  0
   -0.5859   -0.9821   -0.4213 C   0  0  0  0  0  0  0  0  0  0  0  0
    0.9382   -0.8157   -0.4881 C   0  0  0  0  0  0  0  0  0  0  0  0
    1.6284   -0.7559    0.8758 C   0  0  0  0  0  0  0  0  0  0  0  0
    3.1650   -0.6492    0.7815 C   0  0  0  0  0  0  0  0  0  0  0  0
    3.6352    0.5983    0.1920 C   0  0  0  0  0  0  0  0  0  0  0  0
    4.0111    1.6447   -0.2878 C   0  0  0  0  0  0  0  0  0  0  0  0
   -4.7083    1.1083    0.6242 H   0  0  0  0  0  0  0  0  0  0  0  0
   -3.3951    2.1664    0.0724 H   0  0  0  0  0  0  0  0  0  0  0  0
   -3.3447    1.4678    1.7012 H   0  0  0  0  0  0  0  0  0  0  0  0
   -3.1334   -0.8450    0.6962 H   0  0  0  0  0  0  0  0  0  0  0  0
   -3.1883   -0.1530   -0.9213 H   0  0  0  0  0  0  0  0  0  0  0  0
   -1.0243    0.4331    1.1702 H   0  0  0  0  0  0  0  0  0  0  0  0
   -1.0733    1.1231   -0.4499 H   0  0  0  0  0  0  0  0  0  0  0  0
   -0.8306   -1.8743    0.1810 H   0  0  0  0  0  0  0  0  0  0  0  0
   -0.9604   -1.1925   -1.4366 H   0  0  0  0  0  0  0  0  0  0  0  0
    1.3633   -1.6589   -1.0579 H   0  0  0  0  0  0  0  0  0  0  0  0
    1.1838    0.0940   -1.0598 H   0  0  0  0  0  0  0  0  0  0  0  0
    1.2535    0.0958    1.4619 H   0  0  0  0  0  0  0  0  0  0  0  0
    1.3873   -1.6661    1.4482 H   0  0  0  0  0  0  0  0  0  0  0  0
    3.6025   -0.7505    1.7877 H   0  0  0  0  0  0  0  0  0  0  0  0
    3.5547   -1.4955    0.1909 H   0  0  0  0  0  0  0  0  0  0  0  0
    4.3498    2.5666   -0.7100 H   0  0  0  0  0  0  0  0  0  0  0  0
  1 12  1  0  0  0  0
  2  3  1  0  0  0  0
  2  1  1  0  0  0  0
  2 13  1  0  0  0  0
  3 15  1  0  0  0  0
  4  3  1  0  0  0  0
  4 17  1  0  0  0  0
  5  4  1  0  0  0  0
  5  6  1  0  0  0  0
  6 22  1  0  0  0  0
  6 21  1  0  0  0  0
  7  6  1  0  0  0  0
  7 23  1  0  0  0  0
  8  7  1  0  0  0  0
  9  8  3  0  0  0  0
 10  1  1  0  0  0  0
 11  1  1  0  0  0  0
 14  2  1  0  0  0  0
 16  3  1  0  0  0  0
 18  4  1  0  0  0  0
 19  5  1  0  0  0  0
 20  5  1  0  0  0  0
 24  7  1  0  0  0  0
 25  9  1  0  0  0  0
M  END
