083
 OpenBabel08181812023D

 12 11  0  0  0  0  0  0  0  0999 V2000
    1.3630    0.5299    0.0998 C   0  0  0  0  0  0  0  0  0  0  0  0
    0.4004   -0.6541    0.1874 C   0  0  0  0  0  0  0  0  0  0  0  0
   -1.0587   -0.2453    0.3155 C   0  0  0  0  0  0  0  0  0  0  0  0
   -1.4471    0.4465   -0.8800 O   0  0  0  0  0  0  0  0  0  0  0  0
    1.1477    1.1475   -0.7807 H   0  0  0  0  0  0  0  0  0  0  0  0
    1.2800    1.1727    0.9885 H   0  0  0  0  0  0  0  0  0  0  0  0
    2.4048    0.1899    0.0303 H   0  0  0  0  0  0  0  0  0  0  0  0
    0.5045   -1.2939   -0.7025 H   0  0  0  0  0  0  0  0  0  0  0  0
    0.6486   -1.2825    1.0570 H   0  0  0  0  0  0  0  0  0  0  0  0
   -1.6862   -1.1425    0.4643 H   0  0  0  0  0  0  0  0  0  0  0  0
   -1.1869    0.4079    1.1995 H   0  0  0  0  0  0  0  0  0  0  0  0
   -2.3699    0.7237   -0.7843 H   0  0  0  0  0  0  0  0  0  0  0  0
  1  2  1  0  0  0  0
  1  6  1  0  0  0  0
  2  3  1  0  0  0  0
  2  9  1  0  0  0  0
  3 10  1  0  0  0  0
  3 11  1  0  0  0  0
  4 12  1  0  0  0  0
  4  3  1  0  0  0  0
  5  1  1  0  0  0  0
  7  1  1  0  0  0  0
  8  2  1  0  0  0  0
M  END
