340
 OpenBabel08181812023D

 12 11  0  0  0  0  0  0  0  0999 V2000
   -1.6018   -0.3523    0.1452 C   0  0  0  0  0  0  0  0  0  0  0  0
   -0.3834    0.5456   -0.0751 C   0  0  0  0  0  0  0  0  0  0  0  0
    0.9273   -0.1945    0.1801 C   0  0  0  0  0  0  0  0  0  0  0  0
    2.3358    0.9486   -0.1043 S   0  0  0  0  0  0  0  0  0  0  0  0
   -1.6384   -0.7297    1.1770 H   0  0  0  0  0  0  0  0  0  0  0  0
   -2.5349    0.1949   -0.0425 H   0  0  0  0  0  0  0  0  0  0  0  0
   -1.5841   -1.2216   -0.5273 H   0  0  0  0  0  0  0  0  0  0  0  0
   -0.3852    0.9339   -1.1052 H   0  0  0  0  0  0  0  0  0  0  0  0
   -0.4390    1.4226    0.5880 H   0  0  0  0  0  0  0  0  0  0  0  0
    1.0193   -1.0536   -0.4977 H   0  0  0  0  0  0  0  0  0  0  0  0
    0.9646   -0.5599    1.2150 H   0  0  0  0  0  0  0  0  0  0  0  0
    3.3198    0.0659    0.1806 H   0  0  0  0  0  0  0  0  0  0  0  0
  1  5  1  0  0  0  0
  2  1  1  0  0  0  0
  2  3  1  0  0  0  0
  2  9  1  0  0  0  0
  3 11  1  0  0  0  0
  4  3  1  0  0  0  0
  4 12  1  0  0  0  0
  6  1  1  0  0  0  0
  7  1  1  0  0  0  0
  8  2  1  0  0  0  0
 10  3  1  0  0  0  0
M  END
