441
 OpenBabel08181812023D

 21 20  0  0  0  0  0  0  0  0999 V2000
   -1.8298   -1.2683    0.2631 C   0  0  0  0  0  0  0  0  0  0  0  0
   -1.6641    0.0411   -0.5076 C   0  0  0  0  0  0  0  0  0  0  0  0
   -1.9610    1.2671    0.3562 C   0  0  0  0  0  0  0  0  0  0  0  0
   -0.0609    0.1746   -1.4053 S   0  0  0  0  0  0  0  0  0  0  0  0
    1.2105    0.1069   -0.0685 C   0  0  0  0  0  0  0  0  0  0  0  0
    1.8413   -1.2819    0.0469 C   0  0  0  0  0  0  0  0  0  0  0  0
    2.2625    1.1845   -0.3383 C   0  0  0  0  0  0  0  0  0  0  0  0
   -1.1347   -1.3225    1.1127 H   0  0  0  0  0  0  0  0  0  0  0  0
   -1.6508   -2.1367   -0.3823 H   0  0  0  0  0  0  0  0  0  0  0  0
   -2.8495   -1.3417    0.6712 H   0  0  0  0  0  0  0  0  0  0  0  0
   -2.3626    0.0363   -1.3594 H   0  0  0  0  0  0  0  0  0  0  0  0
   -2.9735    1.1980    0.7825 H   0  0  0  0  0  0  0  0  0  0  0  0
   -1.2588    1.3440    1.1986 H   0  0  0  0  0  0  0  0  0  0  0  0
   -1.8912    2.1911   -0.2298 H   0  0  0  0  0  0  0  0  0  0  0  0
    0.6837    0.3504    0.8659 H   0  0  0  0  0  0  0  0  0  0  0  0
    1.0899   -2.0544    0.2483 H   0  0  0  0  0  0  0  0  0  0  0  0
    2.5839   -1.3001    0.8601 H   0  0  0  0  0  0  0  0  0  0  0  0
    2.3548   -1.5505   -0.8868 H   0  0  0  0  0  0  0  0  0  0  0  0
    1.8161    2.1858   -0.3486 H   0  0  0  0  0  0  0  0  0  0  0  0
    2.7474    1.0216   -1.3116 H   0  0  0  0  0  0  0  0  0  0  0  0
    3.0469    1.1547    0.4328 H   0  0  0  0  0  0  0  0  0  0  0  0
  1 10  1  0  0  0  0
  1  8  1  0  0  0  0
  2  1  1  0  0  0  0
  2  3  1  0  0  0  0
  3 12  1  0  0  0  0
  3 13  1  0  0  0  0
  4  2  1  0  0  0  0
  4  5  1  0  0  0  0
  5  6  1  0  0  0  0
  5 15  1  0  0  0  0
  6 16  1  0  0  0  0
  6 17  1  0  0  0  0
  7  5  1  0  0  0  0
  7 21  1  0  0  0  0
  9  1  1  0  0  0  0
 11  2  1  0  0  0  0
 14  3  1  0  0  0  0
 18  6  1  0  0  0  0
 19  7  1  0  0  0  0
 20  7  1  0  0  0  0
M  END
