486
 OpenBabel08181812023D

  9  8  0  0  0  0  0  0  0  0999 V2000
    0.2840   -0.3508   -0.5690 C   0  0  0  0  0  0  0  0  0  0  0  0
    0.2500   -1.0037   -1.5917 O   0  0  0  0  0  0  0  0  0  0  0  0
   -1.0457    0.0680    0.1778 C   0  0  0  0  0  0  0  0  0  0  0  0
   -1.0188   -0.6062    1.8474 Cl  0  0  0  0  0  0  0  0  0  0  0  0
   -1.1256    1.8645    0.2723 Cl  0  0  0  0  0  0  0  0  0  0  0  0
   -2.4466   -0.5454   -0.6894 Cl  0  0  0  0  0  0  0  0  0  0  0  0
    1.4110    0.0869    0.0408 N   0  0  0  0  0  0  0  0  0  0  0  0
    2.3013   -0.1433   -0.3816 H   0  0  0  0  0  0  0  0  0  0  0  0
    1.3904    0.6301    0.8936 H   0  0  0  0  0  0  0  0  0  0  0  0
  1  7  1  0  0  0  0
  1  3  1  0  0  0  0
  2  1  2  0  0  0  0
  3  5  1  0  0  0  0
  3  4  1  0  0  0  0
  6  3  1  0  0  0  0
  7  9  1  0  0  0  0
  8  7  1  0  0  0  0
M  END
