090
 OpenBabel08181812023D

  9  8  0  0  0  0  0  0  0  0999 V2000
    0.4165   -0.4097    0.0607 C   0  0  0  0  0  0  0  0  0  0  0  0
   -0.9014    0.3015   -0.2135 C   0  0  0  0  0  0  0  0  0  0  0  0
   -1.3838    0.9301    0.8834 F   0  0  0  0  0  0  0  0  0  0  0  0
   -1.8297   -0.6148   -0.6058 F   0  0  0  0  0  0  0  0  0  0  0  0
   -0.7928    1.2228   -1.1985 F   0  0  0  0  0  0  0  0  0  0  0  0
    1.3673    0.5570    0.4667 O   0  0  0  0  0  0  0  0  0  0  0  0
    0.2165   -1.1655    0.8390 H   0  0  0  0  0  0  0  0  0  0  0  0
    0.7023   -0.9248   -0.8720 H   0  0  0  0  0  0  0  0  0  0  0  0
    2.2050    0.1034    0.6402 H   0  0  0  0  0  0  0  0  0  0  0  0
  1  6  1  0  0  0  0
  1  7  1  0  0  0  0
  2  1  1  0  0  0  0
  2  3  1  0  0  0  0
  4  2  1  0  0  0  0
  5  2  1  0  0  0  0
  6  9  1  0  0  0  0
  8  1  1  0  0  0  0
M  END
