118
 OpenBabel08181812023D

 26 25  0  0  0  0  0  0  0  0999 V2000
    2.2400   -0.5490   -0.8739 C   0  0  0  0  0  0  0  0  0  0  0  0
    1.4167    0.2620    0.1351 C   0  0  0  0  0  0  0  0  0  0  0  0
    2.2776    0.6201    1.3528 C   0  0  0  0  0  0  0  0  0  0  0  0
    0.1271   -0.4806    0.5634 C   0  0  0  0  0  0  0  0  0  0  0  0
   -1.2042   -0.0645   -0.1140 C   0  0  0  0  0  0  0  0  0  0  0  0
   -1.1227   -0.1661   -1.6457 C   0  0  0  0  0  0  0  0  0  0  0  0
   -2.3050   -1.0135    0.3894 C   0  0  0  0  0  0  0  0  0  0  0  0
   -1.5742    1.3752    0.2826 C   0  0  0  0  0  0  0  0  0  0  0  0
    1.6551   -0.8152   -1.7639 H   0  0  0  0  0  0  0  0  0  0  0  0
    3.1256    0.0104   -1.2080 H   0  0  0  0  0  0  0  0  0  0  0  0
    2.5920   -1.4861   -0.4154 H   0  0  0  0  0  0  0  0  0  0  0  0
    1.1289    1.2094   -0.3513 H   0  0  0  0  0  0  0  0  0  0  0  0
    2.5800   -0.2877    1.8971 H   0  0  0  0  0  0  0  0  0  0  0  0
    3.1940    1.1498    1.0553 H   0  0  0  0  0  0  0  0  0  0  0  0
    1.7281    1.2621    2.0556 H   0  0  0  0  0  0  0  0  0  0  0  0
    0.2732   -1.5633    0.4069 H   0  0  0  0  0  0  0  0  0  0  0  0
   -0.0167   -0.3552    1.6496 H   0  0  0  0  0  0  0  0  0  0  0  0
   -2.0879    0.1019   -2.0998 H   0  0  0  0  0  0  0  0  0  0  0  0
   -0.8753   -1.1884   -1.9660 H   0  0  0  0  0  0  0  0  0  0  0  0
   -0.3650    0.5130   -2.0609 H   0  0  0  0  0  0  0  0  0  0  0  0
   -2.0865   -2.0548    0.1107 H   0  0  0  0  0  0  0  0  0  0  0  0
   -3.2827   -0.7482   -0.0387 H   0  0  0  0  0  0  0  0  0  0  0  0
   -2.3944   -0.9702    1.4848 H   0  0  0  0  0  0  0  0  0  0  0  0
   -1.6678    1.4711    1.3743 H   0  0  0  0  0  0  0  0  0  0  0  0
   -0.8207    2.1004   -0.0555 H   0  0  0  0  0  0  0  0  0  0  0  0
   -2.5354    1.6674   -0.1644 H   0  0  0  0  0  0  0  0  0  0  0  0
  1 11  1  0  0  0  0
  1  2  1  0  0  0  0
  2  4  1  0  0  0  0
  2  3  1  0  0  0  0
  3 13  1  0  0  0  0
  3 15  1  0  0  0  0
  4 17  1  0  0  0  0
  5  8  1  0  0  0  0
  5  7  1  0  0  0  0
  5  4  1  0  0  0  0
  6  5  1  0  0  0  0
  7 23  1  0  0  0  0
  8 24  1  0  0  0  0
  9  1  1  0  0  0  0
 10  1  1  0  0  0  0
 12  2  1  0  0  0  0
 14  3  1  0  0  0  0
 16  4  1  0  0  0  0
 18  6  1  0  0  0  0
 19  6  1  0  0  0  0
 20  6  1  0  0  0  0
 21  7  1  0  0  0  0
 22  7  1  0  0  0  0
 25  8  1  0  0  0  0
 26  8  1  0  0  0  0
M  END
