306
 OpenBabel08181812023D

 24 23  0  0  1  0  0  0  0  0999 V2000
    2.3001   -0.6025    0.7410 C   0  0  0  0  0  0  0  0  0  0  0  0
    1.7356   -0.1004   -0.5891 C   0  0  0  0  0  0  0  0  0  0  0  0
    0.2517   -0.3798   -0.8943 C   0  0  2  0  0  0  0  0  0  0  0  0
   -0.8372    0.2739    0.0046 C   0  0  0  0  0  0  0  0  0  0  0  0
   -2.1856    0.1407   -0.7313 C   0  0  0  0  0  0  0  0  0  0  0  0
   -0.9706   -0.4090    1.3775 C   0  0  0  0  0  0  0  0  0  0  0  0
   -0.5239    1.7662    0.1907 C   0  0  0  0  0  0  0  0  0  0  0  0
   -0.0105   -1.7954   -0.9170 O   0  0  0  0  0  0  0  0  0  0  0  0
    1.9977   -1.6400    0.9341 H   0  0  0  0  0  0  0  0  0  0  0  0
    3.3979   -0.5681    0.7276 H   0  0  0  0  0  0  0  0  0  0  0  0
    1.9674    0.0080    1.5894 H   0  0  0  0  0  0  0  0  0  0  0  0
    2.3042   -0.5693   -1.4118 H   0  0  0  0  0  0  0  0  0  0  0  0
    1.9185    0.9795   -0.6986 H   0  0  0  0  0  0  0  0  0  0  0  0
    0.0747    0.0319   -1.9087 H   0  0  0  0  0  0  0  0  0  0  0  0
   -2.1596    0.6574   -1.7022 H   0  0  0  0  0  0  0  0  0  0  0  0
   -2.4325   -0.9129   -0.9112 H   0  0  0  0  0  0  0  0  0  0  0  0
   -2.9932    0.5871   -0.1340 H   0  0  0  0  0  0  0  0  0  0  0  0
   -0.0855   -0.2615    2.0069 H   0  0  0  0  0  0  0  0  0  0  0  0
   -1.8324    0.0134    1.9143 H   0  0  0  0  0  0  0  0  0  0  0  0
   -1.1341   -1.4875    1.2655 H   0  0  0  0  0  0  0  0  0  0  0  0
   -0.3928    2.2740   -0.7768 H   0  0  0  0  0  0  0  0  0  0  0  0
   -1.3535    2.2615    0.7143 H   0  0  0  0  0  0  0  0  0  0  0  0
    0.3855    1.9261    0.7857 H   0  0  0  0  0  0  0  0  0  0  0  0
    0.5782   -2.1932   -1.5765 H   0  0  0  0  0  0  0  0  0  0  0  0
  1  9  1  0  0  0  0
  1 11  1  0  0  0  0
  2  1  1  0  0  0  0
  3 14  1  6  0  0  0
  3  2  1  0  0  0  0
  3  4  1  0  0  0  0
  4  7  1  0  0  0  0
  4  6  1  0  0  0  0
  5 17  1  0  0  0  0
  5  4  1  0  0  0  0
  6 19  1  0  0  0  0
  6 18  1  0  0  0  0
  7 22  1  0  0  0  0
  7 23  1  0  0  0  0
  8  3  1  0  0  0  0
 10  1  1  0  0  0  0
 12  2  1  0  0  0  0
 13  2  1  0  0  0  0
 15  5  1  0  0  0  0
 16  5  1  0  0  0  0
 20  6  1  0  0  0  0
 21  7  1  0  0  0  0
 24  8  1  0  0  0  0
M  END
