542
 OpenBabel08181812023D

 17 17  0  0  0  0  0  0  0  0999 V2000
    1.0487    1.2531   -0.3935 C   0  0  0  0  0  0  0  0  0  0  0  0
   -0.2857    1.5658   -0.5799 C   0  0  0  0  0  0  0  0  0  0  0  0
   -1.3099    0.6382   -0.3025 C   0  0  0  0  0  0  0  0  0  0  0  0
   -0.9351   -0.6407    0.1790 C   0  0  0  0  0  0  0  0  0  0  0  0
    0.4071   -0.9579    0.3676 C   0  0  0  0  0  0  0  0  0  0  0  0
    1.3832   -0.0166    0.0825 C   0  0  0  0  0  0  0  0  0  0  0  0
    2.8032   -0.3637    0.2864 N   0  0  0  0  0  0  0  0  0  0  0  0
    3.6383    0.5046    0.0197 O   0  0  0  0  0  0  0  0  0  0  0  0
    3.0603   -1.4919    0.7071 O   0  0  0  0  0  0  0  0  0  0  0  0
   -1.9224   -1.6991    0.5058 N   0  0  0  0  0  0  0  0  0  0  0  0
   -3.1143   -1.4436    0.3479 O   0  0  0  0  0  0  0  0  0  0  0  0
   -1.4747   -2.7716    0.9168 O   0  0  0  0  0  0  0  0  0  0  0  0
   -2.6020    0.9651   -0.4917 O   0  0  0  0  0  0  0  0  0  0  0  0
    1.8382    1.9700   -0.6080 H   0  0  0  0  0  0  0  0  0  0  0  0
   -0.5652    2.5538   -0.9514 H   0  0  0  0  0  0  0  0  0  0  0  0
    0.6734   -1.9448    0.7378 H   0  0  0  0  0  0  0  0  0  0  0  0
   -2.6430    1.8795   -0.8233 H   0  0  0  0  0  0  0  0  0  0  0  0
  1  6  1  0  0  0  0
  2  1  2  0  0  0  0
  2  3  1  0  0  0  0
  3  4  2  0  0  0  0
  4  5  1  0  0  0  0
  4 10  1  0  0  0  0
  5 16  1  0  0  0  0
  6  7  1  0  0  0  0
  6  5  2  0  0  0  0
  7  9  2  0  0  0  0
  8  7  2  0  0  0  0
 10 12  2  0  0  0  0
 11 10  2  0  0  0  0
 13  3  1  0  0  0  0
 14  1  1  0  0  0  0
 15  2  1  0  0  0  0
 17 13  1  0  0  0  0
M  END
