319
 OpenBabel08181812023D

 18 17  0  0  0  0  0  0  0  0999 V2000
    2.4943    0.5194   -0.4172 C   0  0  0  0  0  0  0  0  0  0  0  0
    1.1716    0.2638   -1.1610 C   0  0  0  0  0  0  0  0  0  0  0  0
    0.4342   -0.9150   -0.5473 C   0  0  0  0  0  0  0  0  0  0  0  0
    0.5219   -2.0386   -1.0076 O   0  0  0  0  0  0  0  0  0  0  0  0
   -0.4022   -0.6551    0.7116 C   0  0  0  0  0  0  0  0  0  0  0  0
   -1.9079   -0.5383    0.4196 C   0  0  0  0  0  0  0  0  0  0  0  0
   -2.7029   -1.2773    0.9647 O   0  0  0  0  0  0  0  0  0  0  0  0
   -2.3434    0.5275   -0.5621 C   0  0  0  0  0  0  0  0  0  0  0  0
    3.0234    1.3715   -0.8619 H   0  0  0  0  0  0  0  0  0  0  0  0
    2.3276    0.7468    0.6446 H   0  0  0  0  0  0  0  0  0  0  0  0
    3.1485   -0.3593   -0.4786 H   0  0  0  0  0  0  0  0  0  0  0  0
    1.3711    0.0271   -2.2139 H   0  0  0  0  0  0  0  0  0  0  0  0
    0.5444    1.1669   -1.1151 H   0  0  0  0  0  0  0  0  0  0  0  0
   -0.2733   -1.4926    1.4053 H   0  0  0  0  0  0  0  0  0  0  0  0
   -0.0796    0.2814    1.1924 H   0  0  0  0  0  0  0  0  0  0  0  0
   -1.9310    1.5094   -0.2896 H   0  0  0  0  0  0  0  0  0  0  0  0
   -3.4359    0.5767   -0.5970 H   0  0  0  0  0  0  0  0  0  0  0  0
   -1.9608    0.2857   -1.5656 H   0  0  0  0  0  0  0  0  0  0  0  0
  1 10  1  0  0  0  0
  2 13  1  0  0  0  0
  2  3  1  0  0  0  0
  2  1  1  0  0  0  0
  3  5  1  0  0  0  0
  4  3  2  0  0  0  0
  5 15  1  0  0  0  0
  5 14  1  0  0  0  0
  6  5  1  0  0  0  0
  6  7  2  0  0  0  0
  8 16  1  0  0  0  0
  8  6  1  0  0  0  0
  9  1  1  0  0  0  0
 11  1  1  0  0  0  0
 12  2  1  0  0  0  0
 17  8  1  0  0  0  0
 18  8  1  0  0  0  0
M  END
