520
 OpenBabel08181812023D

 19 19  0  0  0  0  0  0  0  0999 V2000
    2.7721   -0.7179   -0.1440 C   0  0  0  0  0  0  0  0  0  0  0  0
    1.3843   -0.1297   -0.1306 C   0  0  0  0  0  0  0  0  0  0  0  0
    1.1667    1.2159   -0.4499 C   0  0  0  0  0  0  0  0  0  0  0  0
   -0.1188    1.7547   -0.4358 C   0  0  0  0  0  0  0  0  0  0  0  0
   -1.2136    0.9544   -0.1010 C   0  0  0  0  0  0  0  0  0  0  0  0
   -1.0359   -0.4003    0.2253 C   0  0  0  0  0  0  0  0  0  0  0  0
    0.2677   -0.9075    0.2010 C   0  0  0  0  0  0  0  0  0  0  0  0
   -2.2182   -1.2553    0.5844 C   0  0  0  0  0  0  0  0  0  0  0  0
   -2.5003    1.4435   -0.0741 O   0  0  0  0  0  0  0  0  0  0  0  0
    3.4364   -0.2004    0.5635 H   0  0  0  0  0  0  0  0  0  0  0  0
    2.7569   -1.7802    0.1301 H   0  0  0  0  0  0  0  0  0  0  0  0
    3.2351   -0.6367   -1.1384 H   0  0  0  0  0  0  0  0  0  0  0  0
    2.0104    1.8559   -0.7139 H   0  0  0  0  0  0  0  0  0  0  0  0
   -0.2747    2.8069   -0.6872 H   0  0  0  0  0  0  0  0  0  0  0  0
    0.4132   -1.9607    0.4539 H   0  0  0  0  0  0  0  0  0  0  0  0
   -2.7506   -0.8546    1.4592 H   0  0  0  0  0  0  0  0  0  0  0  0
   -1.9040   -2.2813    0.8103 H   0  0  0  0  0  0  0  0  0  0  0  0
   -2.9511   -1.2889   -0.2347 H   0  0  0  0  0  0  0  0  0  0  0  0
   -2.4759    2.3823   -0.3177 H   0  0  0  0  0  0  0  0  0  0  0  0
  1  2  1  0  0  0  0
  1 11  1  0  0  0  0
  1 10  1  0  0  0  0
  2  7  2  0  0  0  0
  3  4  2  0  0  0  0
  3  2  1  0  0  0  0
  4  5  1  0  0  0  0
  5  9  1  0  0  0  0
  5  6  2  0  0  0  0
  6  8  1  0  0  0  0
  7  6  1  0  0  0  0
  7 15  1  0  0  0  0
  8 17  1  0  0  0  0
  8 16  1  0  0  0  0
 12  1  1  0  0  0  0
 13  3  1  0  0  0  0
 14  4  1  0  0  0  0
 18  8  1  0  0  0  0
 19  9  1  0  0  0  0
M  END
