516
 OpenBabel08181812023D

 20 20  0  0  0  0  0  0  0  0999 V2000
    3.0261   -0.2316   -0.3151 C   0  0  0  0  0  0  0  0  0  0  0  0
    1.5676    0.1117   -0.1546 C   0  0  0  0  0  0  0  0  0  0  0  0
    1.1364    1.4316    0.0150 C   0  0  0  0  0  0  0  0  0  0  0  0
   -0.2140    1.7398    0.1625 C   0  0  0  0  0  0  0  0  0  0  0  0
   -1.1902    0.7305    0.1455 C   0  0  0  0  0  0  0  0  0  0  0  0
   -0.7788   -0.6143   -0.0248 C   0  0  0  0  0  0  0  0  0  0  0  0
    0.5827   -0.8855   -0.1695 C   0  0  0  0  0  0  0  0  0  0  0  0
   -1.7997   -1.7179   -0.0475 C   0  0  0  0  0  0  0  0  0  0  0  0
   -2.5279    1.0416    0.2916 N   0  0  0  0  0  0  0  0  0  0  0  0
    3.3741   -0.9096    0.4787 H   0  0  0  0  0  0  0  0  0  0  0  0
    3.2227   -0.7333   -1.2745 H   0  0  0  0  0  0  0  0  0  0  0  0
    3.6514    0.6696   -0.2784 H   0  0  0  0  0  0  0  0  0  0  0  0
    1.8699    2.2399    0.0329 H   0  0  0  0  0  0  0  0  0  0  0  0
   -0.5229    2.7790    0.2935 H   0  0  0  0  0  0  0  0  0  0  0  0
    0.8853   -1.9282   -0.3002 H   0  0  0  0  0  0  0  0  0  0  0  0
   -2.5273   -1.5885   -0.8663 H   0  0  0  0  0  0  0  0  0  0  0  0
   -2.3756   -1.7650    0.8920 H   0  0  0  0  0  0  0  0  0  0  0  0
   -1.3199   -2.6940   -0.1868 H   0  0  0  0  0  0  0  0  0  0  0  0
   -2.8225    1.9978    0.4145 H   0  0  0  0  0  0  0  0  0  0  0  0
   -3.2372    0.3265    0.2837 H   0  0  0  0  0  0  0  0  0  0  0  0
  1 12  1  0  0  0  0
  1  2  1  0  0  0  0
  1 10  1  0  0  0  0
  2  3  1  0  0  0  0
  3 13  1  0  0  0  0
  3  4  2  0  0  0  0
  4 14  1  0  0  0  0
  5  4  1  0  0  0  0
  5  9  1  0  0  0  0
  6  5  2  0  0  0  0
  7  2  2  0  0  0  0
  7  6  1  0  0  0  0
  8  6  1  0  0  0  0
  8 17  1  0  0  0  0
  9 19  1  0  0  0  0
 11  1  1  0  0  0  0
 15  7  1  0  0  0  0
 16  8  1  0  0  0  0
 18  8  1  0  0  0  0
 20  9  1  0  0  0  0
M  END
