521
 OpenBabel08181812023D

 19 19  0  0  0  0  0  0  0  0999 V2000
    2.9761    0.1588   -0.1796 C   0  0  0  0  0  0  0  0  0  0  0  0
    1.4846    0.0093   -0.0271 C   0  0  0  0  0  0  0  0  0  0  0  0
    0.9390   -0.9496    0.8358 C   0  0  0  0  0  0  0  0  0  0  0  0
   -0.4438   -1.0772    0.9672 C   0  0  0  0  0  0  0  0  0  0  0  0
   -1.3381   -0.2694    0.2574 C   0  0  0  0  0  0  0  0  0  0  0  0
   -0.7820    0.6894   -0.6056 C   0  0  0  0  0  0  0  0  0  0  0  0
    0.6027    0.8245   -0.7437 C   0  0  0  0  0  0  0  0  0  0  0  0
   -1.6605    1.4848   -1.3045 O   0  0  0  0  0  0  0  0  0  0  0  0
   -2.8283   -0.4023    0.3951 C   0  0  0  0  0  0  0  0  0  0  0  0
    3.4351   -0.7740   -0.5376 H   0  0  0  0  0  0  0  0  0  0  0  0
    3.2315    0.9532   -0.8919 H   0  0  0  0  0  0  0  0  0  0  0  0
    3.4520    0.4029    0.7811 H   0  0  0  0  0  0  0  0  0  0  0  0
    1.6003   -1.6010    1.4089 H   0  0  0  0  0  0  0  0  0  0  0  0
   -0.8511   -1.8303    1.6447 H   0  0  0  0  0  0  0  0  0  0  0  0
    0.9998    1.5825   -1.4255 H   0  0  0  0  0  0  0  0  0  0  0  0
   -1.1474    2.0960   -1.8564 H   0  0  0  0  0  0  0  0  0  0  0  0
   -3.0836   -1.1963    1.1071 H   0  0  0  0  0  0  0  0  0  0  0  0
   -3.2847    0.5354    0.7440 H   0  0  0  0  0  0  0  0  0  0  0  0
   -3.3016   -0.6368   -0.5694 H   0  0  0  0  0  0  0  0  0  0  0  0
  1  2  1  0  0  0  0
  1 12  1  0  0  0  0
  2  3  2  0  0  0  0
  3  4  1  0  0  0  0
  3 13  1  0  0  0  0
  4 14  1  0  0  0  0
  5  9  1  0  0  0  0
  5  4  2  0  0  0  0
  6  5  1  0  0  0  0
  7  6  2  0  0  0  0
  7  2  1  0  0  0  0
  8  6  1  0  0  0  0
  9 18  1  0  0  0  0
  9 17  1  0  0  0  0
 10  1  1  0  0  0  0
 11  1  1  0  0  0  0
 15  7  1  0  0  0  0
 16  8  1  0  0  0  0
 19  9  1  0  0  0  0
M  END
