345
 OpenBabel08181812023D

 17 17  0  0  0  0  0  0  0  0999 V2000
    2.3026   -1.2764   -0.0192 C   0  0  0  0  0  0  0  0  0  0  0  0
    1.1305   -0.3324    0.0246 C   0  0  0  0  0  0  0  0  0  0  0  0
    1.3165    1.0462    0.1946 C   0  0  0  0  0  0  0  0  0  0  0  0
    0.1994    1.8764    0.2283 C   0  0  0  0  0  0  0  0  0  0  0  0
   -1.0658    1.3118    0.0922 C   0  0  0  0  0  0  0  0  0  0  0  0
   -1.1738   -0.0754   -0.0744 C   0  0  0  0  0  0  0  0  0  0  0  0
   -0.0931   -0.8764   -0.1068 N   0  0  0  0  0  0  0  0  0  0  0  0
   -2.5168   -0.7390   -0.2261 C   0  0  0  0  0  0  0  0  0  0  0  0
    2.9850   -1.0236   -0.8435 H   0  0  0  0  0  0  0  0  0  0  0  0
    1.9475   -2.3026   -0.1578 H   0  0  0  0  0  0  0  0  0  0  0  0
    2.8872   -1.2266    0.9107 H   0  0  0  0  0  0  0  0  0  0  0  0
    2.3220    1.4551    0.2982 H   0  0  0  0  0  0  0  0  0  0  0  0
    0.3138    2.9530    0.3594 H   0  0  0  0  0  0  0  0  0  0  0  0
   -1.9619    1.9327    0.1146 H   0  0  0  0  0  0  0  0  0  0  0  0
   -3.1525   -0.5532    0.6515 H   0  0  0  0  0  0  0  0  0  0  0  0
   -2.3856   -1.8195   -0.3439 H   0  0  0  0  0  0  0  0  0  0  0  0
   -3.0546   -0.3501   -1.1027 H   0  0  0  0  0  0  0  0  0  0  0  0
  1  2  1  0  0  0  0
  1 11  1  0  0  0  0
  2  3  2  0  0  0  0
  3  4  1  0  0  0  0
  3 12  1  0  0  0  0
  4 13  1  0  0  0  0
  5 14  1  0  0  0  0
  5  4  2  0  0  0  0
  6  5  1  0  0  0  0
  7  6  2  0  0  0  0
  7  2  1  0  0  0  0
  8  6  1  0  0  0  0
  8 15  1  0  0  0  0
  9  1  1  0  0  0  0
 10  1  1  0  0  0  0
 16  8  1  0  0  0  0
 17  8  1  0  0  0  0
M  END
