254
 OpenBabel08181812023D

 13 12  0  0  0  0  0  0  0  0999 V2000
   -1.1182   -0.7340    0.1439 C   0  0  0  0  0  0  0  0  0  0  0  0
    0.0489    0.2351    0.3785 C   0  0  0  0  0  0  0  0  0  0  0  0
    1.3746   -0.3680   -0.0823 C   0  0  0  0  0  0  0  0  0  0  0  0
   -0.1210    1.5506   -0.2608 N   0  0  0  0  0  0  0  0  0  0  0  0
   -0.9748   -1.6801    0.6869 H   0  0  0  0  0  0  0  0  0  0  0  0
   -1.2137   -0.9706   -0.9270 H   0  0  0  0  0  0  0  0  0  0  0  0
   -2.0687   -0.2949    0.4787 H   0  0  0  0  0  0  0  0  0  0  0  0
    0.1204    0.4292    1.4622 H   0  0  0  0  0  0  0  0  0  0  0  0
    2.2054    0.3181    0.1234 H   0  0  0  0  0  0  0  0  0  0  0  0
    1.3537   -0.5620   -1.1663 H   0  0  0  0  0  0  0  0  0  0  0  0
    1.5723   -1.3233    0.4215 H   0  0  0  0  0  0  0  0  0  0  0  0
   -1.0123    1.9649    0.0175 H   0  0  0  0  0  0  0  0  0  0  0  0
   -0.1666    1.4350   -1.2763 H   0  0  0  0  0  0  0  0  0  0  0  0
  1  2  1  0  0  0  0
  1  7  1  0  0  0  0
  1  5  1  0  0  0  0
  2  8  1  0  0  0  0
  3  9  1  0  0  0  0
  3  2  1  0  0  0  0
  3 11  1  0  0  0  0
  4 12  1  0  0  0  0
  4  2  1  0  0  0  0
  6  1  1  0  0  0  0
 10  3  1  0  0  0  0
 13  4  1  0  0  0  0
M  END
