435
 OpenBabel08181812023D

 15 15  0  0  0  0  0  0  0  0999 V2000
   -2.1829   -0.3275   -0.1522 C   0  0  0  0  0  0  0  0  0  0  0  0
   -0.6984   -0.1288   -0.0518 C   0  0  0  0  0  0  0  0  0  0  0  0
    0.1819   -1.2178   -0.1484 C   0  0  0  0  0  0  0  0  0  0  0  0
    1.5645   -1.0618   -0.0587 C   0  0  0  0  0  0  0  0  0  0  0  0
    2.1083    0.2081    0.1330 C   0  0  0  0  0  0  0  0  0  0  0  0
    1.2642    1.3145    0.2338 C   0  0  0  0  0  0  0  0  0  0  0  0
   -0.1143    1.1327    0.1408 C   0  0  0  0  0  0  0  0  0  0  0  0
   -1.2310    2.6840    0.2854 Br  0  0  0  0  0  0  0  0  0  0  0  0
   -2.4237   -1.3865   -0.3015 H   0  0  0  0  0  0  0  0  0  0  0  0
   -2.6061    0.2474   -0.9882 H   0  0  0  0  0  0  0  0  0  0  0  0
   -2.6939    0.0214    0.7564 H   0  0  0  0  0  0  0  0  0  0  0  0
   -0.2416   -2.2124   -0.2985 H   0  0  0  0  0  0  0  0  0  0  0  0
    2.2156   -1.9320   -0.1387 H   0  0  0  0  0  0  0  0  0  0  0  0
    3.1870    0.3458    0.2051 H   0  0  0  0  0  0  0  0  0  0  0  0
    1.6704    2.3132    0.3835 H   0  0  0  0  0  0  0  0  0  0  0  0
  1  2  1  0  0  0  0
  1 11  1  0  0  0  0
  2  7  2  0  0  0  0
  3  4  2  0  0  0  0
  3  2  1  0  0  0  0
  4  5  1  0  0  0  0
  5 14  1  0  0  0  0
  5  6  2  0  0  0  0
  6 15  1  0  0  0  0
  7  6  1  0  0  0  0
  7  8  1  0  0  0  0
  9  1  1  0  0  0  0
 10  1  1  0  0  0  0
 12  3  1  0  0  0  0
 13  4  1  0  0  0  0
M  END
