414
 OpenBabel08181812023D

 11 10  0  0  0  0  0  0  0  0999 V2000
   -1.2935   -0.1077    0.1249 C   0  0  0  0  0  0  0  0  0  0  0  0
    0.0535    0.5110   -0.1943 C   0  0  0  0  0  0  0  0  0  0  0  0
    1.2137   -0.4620   -0.1170 C   0  0  0  0  0  0  0  0  0  0  0  0
    0.3895    2.0269    1.0677 Br  0  0  0  0  0  0  0  0  0  0  0  0
   -1.5041   -0.9085   -0.6014 H   0  0  0  0  0  0  0  0  0  0  0  0
   -1.2959   -0.5495    1.1299 H   0  0  0  0  0  0  0  0  0  0  0  0
   -2.1022    0.6297    0.0674 H   0  0  0  0  0  0  0  0  0  0  0  0
    0.0315    1.0183   -1.1655 H   0  0  0  0  0  0  0  0  0  0  0  0
    1.0562   -1.2704   -0.8483 H   0  0  0  0  0  0  0  0  0  0  0  0
    2.1682    0.0261   -0.3445 H   0  0  0  0  0  0  0  0  0  0  0  0
    1.2830   -0.9139    0.8811 H   0  0  0  0  0  0  0  0  0  0  0  0
  1  6  1  0  0  0  0
  2  3  1  0  0  0  0
  2  1  1  0  0  0  0
  2  4  1  0  0  0  0
  3 11  1  0  0  0  0
  5  1  1  0  0  0  0
  7  1  1  0  0  0  0
  8  2  1  0  0  0  0
  9  3  1  0  0  0  0
 10  3  1  0  0  0  0
M  END
