496
 OpenBabel08181812023D

 18 19  0  0  0  0  0  0  0  0999 V2000
   -2.3082   -1.1168   -0.1781 C   0  0  0  0  0  0  0  0  0  0  0  0
   -2.5324    0.2790   -0.2367 C   0  0  0  0  0  0  0  0  0  0  0  0
   -1.4743    1.1598   -0.1652 C   0  0  0  0  0  0  0  0  0  0  0  0
   -0.1428    0.6851   -0.0318 C   0  0  0  0  0  0  0  0  0  0  0  0
    0.9647    1.5688    0.0442 C   0  0  0  0  0  0  0  0  0  0  0  0
    2.2390    1.0633    0.1733 C   0  0  0  0  0  0  0  0  0  0  0  0
    2.4802   -0.3291    0.2334 C   0  0  0  0  0  0  0  0  0  0  0  0
    1.4170   -1.2015    0.1612 C   0  0  0  0  0  0  0  0  0  0  0  0
    0.0847   -0.7312    0.0278 C   0  0  0  0  0  0  0  0  0  0  0  0
   -1.0269   -1.6091   -0.0487 C   0  0  0  0  0  0  0  0  0  0  0  0
    3.6006    2.1485    0.2666 Cl  0  0  0  0  0  0  0  0  0  0  0  0
   -3.1538   -1.8020   -0.2358 H   0  0  0  0  0  0  0  0  0  0  0  0
   -3.5494    0.6575   -0.3392 H   0  0  0  0  0  0  0  0  0  0  0  0
   -1.6465    2.2362   -0.2104 H   0  0  0  0  0  0  0  0  0  0  0  0
    0.8017    2.6451   -0.0002 H   0  0  0  0  0  0  0  0  0  0  0  0
    3.5013   -0.6919    0.3357 H   0  0  0  0  0  0  0  0  0  0  0  0
    1.5950   -2.2770    0.2068 H   0  0  0  0  0  0  0  0  0  0  0  0
   -0.8498   -2.6849   -0.0030 H   0  0  0  0  0  0  0  0  0  0  0  0
  1 10  1  0  0  0  0
  2  1  2  0  0  0  0
  2  3  1  0  0  0  0
  3  4  2  0  0  0  0
  4  9  1  0  0  0  0
  4  5  1  0  0  0  0
  5  6  2  0  0  0  0
  6  7  1  0  0  0  0
  6 11  1  0  0  0  0
  7 16  1  0  0  0  0
  8 17  1  0  0  0  0
  8  7  2  0  0  0  0
  9  8  1  0  0  0  0
 10 18  1  0  0  0  0
 10  9  2  0  0  0  0
 12  1  1  0  0  0  0
 13  2  1  0  0  0  0
 14  3  1  0  0  0  0
 15  5  1  0  0  0  0
M  END
