381
 OpenBabel08181812023D

 13 13  0  0  0  0  0  0  0  0999 V2000
   -0.9325   -1.1685   -0.3918 C   0  0  0  0  0  0  0  0  0  0  0  0
   -1.6871   -0.0704    0.0221 C   0  0  0  0  0  0  0  0  0  0  0  0
   -1.0408    1.0997    0.4225 C   0  0  0  0  0  0  0  0  0  0  0  0
    0.3509    1.1750    0.4104 C   0  0  0  0  0  0  0  0  0  0  0  0
    1.1187    0.0733   -0.0052 C   0  0  0  0  0  0  0  0  0  0  0  0
    0.4595   -1.0953   -0.4046 C   0  0  0  0  0  0  0  0  0  0  0  0
    2.4778    0.1904   -0.0015 O   0  0  0  0  0  0  0  0  0  0  0  0
    1.1494    2.6334    0.9096 Cl  0  0  0  0  0  0  0  0  0  0  0  0
   -1.4244   -2.0882   -0.7068 H   0  0  0  0  0  0  0  0  0  0  0  0
   -2.7749   -0.1188    0.0354 H   0  0  0  0  0  0  0  0  0  0  0  0
   -1.6088    1.9693    0.7496 H   0  0  0  0  0  0  0  0  0  0  0  0
    1.0533   -1.9534   -0.7282 H   0  0  0  0  0  0  0  0  0  0  0  0
    2.8590   -0.6468   -0.3114 H   0  0  0  0  0  0  0  0  0  0  0  0
  1  2  1  0  0  0  0
  2 10  1  0  0  0  0
  2  3  2  0  0  0  0
  3 11  1  0  0  0  0
  4  3  1  0  0  0  0
  4  8  1  0  0  0  0
  5  7  1  0  0  0  0
  5  4  2  0  0  0  0
  6  1  2  0  0  0  0
  6  5  1  0  0  0  0
  9  1  1  0  0  0  0
 12  6  1  0  0  0  0
 13  7  1  0  0  0  0
M  END
