356
 OpenBabel08181812023D

 31 30  0  0  0  0  0  0  0  0999 V2000
   -4.6408    0.4980    0.0012 C   0  0  0  0  0  0  0  0  0  0  0  0
   -3.9744   -0.6115   -0.8149 C   0  0  0  0  0  0  0  0  0  0  0  0
   -2.4482   -0.4922   -0.9188 C   0  0  0  0  0  0  0  0  0  0  0  0
   -1.7082   -0.6950    0.4080 C   0  0  0  0  0  0  0  0  0  0  0  0
   -0.1781   -0.7163    0.2853 C   0  0  0  0  0  0  0  0  0  0  0  0
    0.4464    0.6336   -0.0826 C   0  0  0  0  0  0  0  0  0  0  0  0
    1.9699    0.6000   -0.2618 C   0  0  0  0  0  0  0  0  0  0  0  0
    2.7390    0.2893    1.0346 C   0  0  0  0  0  0  0  0  0  0  0  0
    4.2521    0.3471    0.8934 C   0  0  0  0  0  0  0  0  0  0  0  0
    4.9319    1.0668    1.6066 O   0  0  0  0  0  0  0  0  0  0  0  0
    4.8850   -0.5269   -0.1738 C   0  0  0  0  0  0  0  0  0  0  0  0
   -4.4133    1.4883   -0.4198 H   0  0  0  0  0  0  0  0  0  0  0  0
   -5.7330    0.3839    0.0084 H   0  0  0  0  0  0  0  0  0  0  0  0
   -4.3052    0.4979    1.0469 H   0  0  0  0  0  0  0  0  0  0  0  0
   -4.2293   -1.5923   -0.3803 H   0  0  0  0  0  0  0  0  0  0  0  0
   -4.3982   -0.6118   -1.8311 H   0  0  0  0  0  0  0  0  0  0  0  0
   -2.0812   -1.2413   -1.6404 H   0  0  0  0  0  0  0  0  0  0  0  0
   -2.1969    0.4921   -1.3470 H   0  0  0  0  0  0  0  0  0  0  0  0
   -2.0401   -1.6496    0.8485 H   0  0  0  0  0  0  0  0  0  0  0  0
   -1.9978    0.0878    1.1276 H   0  0  0  0  0  0  0  0  0  0  0  0
    0.2429   -1.0647    1.2414 H   0  0  0  0  0  0  0  0  0  0  0  0
    0.1135   -1.4681   -0.4695 H   0  0  0  0  0  0  0  0  0  0  0  0
    0.1869    1.3759    0.6912 H   0  0  0  0  0  0  0  0  0  0  0  0
    0.0011    1.0021   -1.0192 H   0  0  0  0  0  0  0  0  0  0  0  0
    2.3058    1.5762   -0.6452 H   0  0  0  0  0  0  0  0  0  0  0  0
    2.2237   -0.1424   -1.0354 H   0  0  0  0  0  0  0  0  0  0  0  0
    2.4565    0.9936    1.8289 H   0  0  0  0  0  0  0  0  0  0  0  0
    2.4809   -0.7256    1.3822 H   0  0  0  0  0  0  0  0  0  0  0  0
    4.6941   -0.0905   -1.1660 H   0  0  0  0  0  0  0  0  0  0  0  0
    5.9666   -0.5801   -0.0162 H   0  0  0  0  0  0  0  0  0  0  0  0
    4.4487   -1.5356   -0.1822 H   0  0  0  0  0  0  0  0  0  0  0  0
  1 13  1  0  0  0  0
  1 14  1  0  0  0  0
  2 15  1  0  0  0  0
  2  1  1  0  0  0  0
  3  2  1  0  0  0  0
  3  4  1  0  0  0  0
  4 19  1  0  0  0  0
  4 20  1  0  0  0  0
  5  4  1  0  0  0  0
  5 21  1  0  0  0  0
  6  5  1  0  0  0  0
  6 23  1  0  0  0  0
  7  6  1  0  0  0  0
  7  8  1  0  0  0  0
  8 28  1  0  0  0  0
  8 27  1  0  0  0  0
  9  8  1  0  0  0  0
  9 10  2  0  0  0  0
 11 30  1  0  0  0  0
 11  9  1  0  0  0  0
 12  1  1  0  0  0  0
 16  2  1  0  0  0  0
 17  3  1  0  0  0  0
 18  3  1  0  0  0  0
 22  5  1  0  0  0  0
 24  6  1  0  0  0  0
 25  7  1  0  0  0  0
 26  7  1  0  0  0  0
 29 11  1  0  0  0  0
 31 11  1  0  0  0  0
M  END
