033
 OpenBabel08181812023D

 12 11  0  0  0  0  0  0  0  0999 V2000
   -1.9620    0.1278    0.1063 C   0  0  0  0  0  0  0  0  0  0  0  0
   -0.4848    0.4105    0.2090 C   0  0  0  0  0  0  0  0  0  0  0  0
    0.4848   -0.4105   -0.2090 C   0  0  0  0  0  0  0  0  0  0  0  0
    1.9620   -0.1278   -0.1064 C   0  0  0  0  0  0  0  0  0  0  0  0
   -2.2411   -0.7834    0.6553 H   0  0  0  0  0  0  0  0  0  0  0  0
   -2.5583    0.9514    0.5171 H   0  0  0  0  0  0  0  0  0  0  0  0
   -2.2775   -0.0155   -0.9375 H   0  0  0  0  0  0  0  0  0  0  0  0
   -0.1973    1.3654    0.6628 H   0  0  0  0  0  0  0  0  0  0  0  0
    0.1972   -1.3654   -0.6628 H   0  0  0  0  0  0  0  0  0  0  0  0
    2.5582   -0.9514   -0.5171 H   0  0  0  0  0  0  0  0  0  0  0  0
    2.2411    0.7834   -0.6553 H   0  0  0  0  0  0  0  0  0  0  0  0
    2.2775    0.0155    0.9374 H   0  0  0  0  0  0  0  0  0  0  0  0
  1  2  1  0  0  0  0
  1  6  1  0  0  0  0
  1  5  1  0  0  0  0
  2  8  1  0  0  0  0
  3  4  1  0  0  0  0
  3  2  2  0  0  0  0
  4 12  1  0  0  0  0
  7  1  1  0  0  0  0
  9  3  1  0  0  0  0
 10  4  1  0  0  0  0
 11  4  1  0  0  0  0
M  END
