326
 OpenBabel08181812023D

 27 26  0  0  1  0  0  0  0  0999 V2000
    2.6000   -1.0037   -1.3099 C   0  0  0  0  0  0  0  0  0  0  0  0
    1.3845   -1.1643   -0.3937 C   0  0  0  0  0  0  0  0  0  0  0  0
    0.8318    0.1519    0.1840 C   0  0  1  0  0  0  0  0  0  0  0  0
   -0.5972   -0.0039    0.7342 C   0  0  0  0  0  0  0  0  0  0  0  0
   -1.7240   -0.1775   -0.2995 C   0  0  0  0  0  0  0  0  0  0  0  0
   -1.8941    1.0602   -1.1875 C   0  0  0  0  0  0  0  0  0  0  0  0
   -3.0414   -0.5062    0.4130 C   0  0  0  0  0  0  0  0  0  0  0  0
    1.7588    0.6885    1.2742 C   0  0  0  0  0  0  0  0  0  0  0  0
    1.3652    2.0289    1.6010 O   0  0  0  0  0  0  0  0  0  0  0  0
    3.4564   -0.5509   -0.7928 H   0  0  0  0  0  0  0  0  0  0  0  0
    2.9325   -1.9745   -1.7013 H   0  0  0  0  0  0  0  0  0  0  0  0
    2.3607   -0.3636   -2.1710 H   0  0  0  0  0  0  0  0  0  0  0  0
    1.6301   -1.8448    0.4400 H   0  0  0  0  0  0  0  0  0  0  0  0
    0.5844   -1.6659   -0.9579 H   0  0  0  0  0  0  0  0  0  0  0  0
    0.8267    0.9088   -0.6188 H   0  0  0  0  0  0  0  0  0  0  0  0
   -0.6077   -0.8706    1.4190 H   0  0  0  0  0  0  0  0  0  0  0  0
   -0.8310    0.8793    1.3498 H   0  0  0  0  0  0  0  0  0  0  0  0
   -1.4782   -1.0335   -0.9519 H   0  0  0  0  0  0  0  0  0  0  0  0
   -2.1226    1.9465   -0.5764 H   0  0  0  0  0  0  0  0  0  0  0  0
   -0.9901    1.2836   -1.7692 H   0  0  0  0  0  0  0  0  0  0  0  0
   -2.7196    0.9224   -1.8996 H   0  0  0  0  0  0  0  0  0  0  0  0
   -3.3424    0.3214    1.0739 H   0  0  0  0  0  0  0  0  0  0  0  0
   -3.8560   -0.6699   -0.3069 H   0  0  0  0  0  0  0  0  0  0  0  0
   -2.9503   -1.4102    1.0323 H   0  0  0  0  0  0  0  0  0  0  0  0
    1.6901    0.0336    2.1642 H   0  0  0  0  0  0  0  0  0  0  0  0
    2.8059    0.6748    0.9252 H   0  0  0  0  0  0  0  0  0  0  0  0
    1.9273    2.3396    2.3254 H   0  0  0  0  0  0  0  0  0  0  0  0
  1 10  1  0  0  0  0
  1  2  1  0  0  0  0
  2  3  1  0  0  0  0
  2 13  1  0  0  0  0
  3 15  1  6  0  0  0
  3  4  1  0  0  0  0
  3  8  1  0  0  0  0
  4 17  1  0  0  0  0
  4 16  1  0  0  0  0
  5  7  1  0  0  0  0
  5  4  1  0  0  0  0
  6 19  1  0  0  0  0
  6  5  1  0  0  0  0
  7 24  1  0  0  0  0
  7 22  1  0  0  0  0
  8  9  1  0  0  0  0
  8 25  1  0  0  0  0
  9 27  1  0  0  0  0
 11  1  1  0  0  0  0
 12  1  1  0  0  0  0
 14  2  1  0  0  0  0
 18  5  1  0  0  0  0
 20  6  1  0  0  0  0
 21  6  1  0  0  0  0
 23  7  1  0  0  0  0
 26  8  1  0  0  0  0
M  END
