527
 OpenBabel08181812023D

 13 13  0  0  0  0  0  0  0  0999 V2000
   -1.0324   -1.0347    0.4115 C   0  0  0  0  0  0  0  0  0  0  0  0
   -1.6727    0.1161   -0.0471 C   0  0  0  0  0  0  0  0  0  0  0  0
   -0.9112    1.2052   -0.4804 C   0  0  0  0  0  0  0  0  0  0  0  0
    0.4728    1.1287   -0.4491 C   0  0  0  0  0  0  0  0  0  0  0  0
    1.1368   -0.0194    0.0084 C   0  0  0  0  0  0  0  0  0  0  0  0
    0.3620   -1.1008    0.4386 C   0  0  0  0  0  0  0  0  0  0  0  0
    2.5027   -0.0118    0.0061 O   0  0  0  0  0  0  0  0  0  0  0  0
    1.2142    2.1810   -0.8678 F   0  0  0  0  0  0  0  0  0  0  0  0
   -1.6155   -1.8896    0.7515 H   0  0  0  0  0  0  0  0  0  0  0  0
   -2.7599    0.1723   -0.0702 H   0  0  0  0  0  0  0  0  0  0  0  0
   -1.3752    2.1208   -0.8453 H   0  0  0  0  0  0  0  0  0  0  0  0
    0.8642   -2.0021    0.7977 H   0  0  0  0  0  0  0  0  0  0  0  0
    2.8142   -0.8657    0.3461 H   0  0  0  0  0  0  0  0  0  0  0  0
  1  6  1  0  0  0  0
  1  9  1  0  0  0  0
  2  1  2  0  0  0  0
  3  4  2  0  0  0  0
  3  2  1  0  0  0  0
  4  5  1  0  0  0  0
  5  6  2  0  0  0  0
  6 12  1  0  0  0  0
  7  5  1  0  0  0  0
  7 13  1  0  0  0  0
  8  4  1  0  0  0  0
 10  2  1  0  0  0  0
 11  3  1  0  0  0  0
M  END
