063
 OpenBabel08181812023D

 22 21  0  0  0  0  0  0  0  0999 V2000
   -2.8808    0.4532    0.0269 C   0  0  0  0  0  0  0  0  0  0  0  0
   -2.1106   -0.6784   -0.6560 C   0  0  0  0  0  0  0  0  0  0  0  0
   -1.0301   -1.3247    0.2222 C   0  0  0  0  0  0  0  0  0  0  0  0
    0.1020   -0.3944    0.6776 C   0  0  0  0  0  0  0  0  0  0  0  0
    0.9483    0.1661   -0.4794 C   0  0  0  0  0  0  0  0  0  0  0  0
    2.0204    1.1174    0.0366 C   0  0  0  0  0  0  0  0  0  0  0  0
    1.7190    2.1764    0.5620 O   0  0  0  0  0  0  0  0  0  0  0  0
    3.4615    0.6812   -0.1160 C   0  0  0  0  0  0  0  0  0  0  0  0
   -2.2309    1.3031    0.2755 H   0  0  0  0  0  0  0  0  0  0  0  0
   -3.3450    0.1071    0.9620 H   0  0  0  0  0  0  0  0  0  0  0  0
   -3.6823    0.8332   -0.6207 H   0  0  0  0  0  0  0  0  0  0  0  0
   -1.6614   -0.3069   -1.5910 H   0  0  0  0  0  0  0  0  0  0  0  0
   -2.8178   -1.4645   -0.9625 H   0  0  0  0  0  0  0  0  0  0  0  0
   -0.5947   -2.1815   -0.3182 H   0  0  0  0  0  0  0  0  0  0  0  0
   -1.5111   -1.7453    1.1207 H   0  0  0  0  0  0  0  0  0  0  0  0
   -0.2985    0.4513    1.2545 H   0  0  0  0  0  0  0  0  0  0  0  0
    0.7585   -0.9507    1.3655 H   0  0  0  0  0  0  0  0  0  0  0  0
    1.3966   -0.6574   -1.0551 H   0  0  0  0  0  0  0  0  0  0  0  0
    0.3075    0.7444   -1.1616 H   0  0  0  0  0  0  0  0  0  0  0  0
    3.7040    0.5727   -1.1843 H   0  0  0  0  0  0  0  0  0  0  0  0
    3.6087   -0.3115    0.3357 H   0  0  0  0  0  0  0  0  0  0  0  0
    4.1364    1.4089    0.3449 H   0  0  0  0  0  0  0  0  0  0  0  0
  1  9  1  0  0  0  0
  1 10  1  0  0  0  0
  2  1  1  0  0  0  0
  2  3  1  0  0  0  0
  3  4  1  0  0  0  0
  3 15  1  0  0  0  0
  4 16  1  0  0  0  0
  4 17  1  0  0  0  0
  5  6  1  0  0  0  0
  5  4  1  0  0  0  0
  6  7  2  0  0  0  0
  8  6  1  0  0  0  0
  8 21  1  0  0  0  0
  8 22  1  0  0  0  0
 11  1  1  0  0  0  0
 12  2  1  0  0  0  0
 13  2  1  0  0  0  0
 14  3  1  0  0  0  0
 18  5  1  0  0  0  0
 19  5  1  0  0  0  0
 20  8  1  0  0  0  0
M  END
