490
 OpenBabel08181812023D

 20 19  0  0  1  0  0  0  0  0999 V2000
    2.5139    0.1002   -1.3884 C   0  0  0  0  0  0  0  0  0  0  0  0
    1.4960    0.3960   -0.2871 C   0  0  0  0  0  0  0  0  0  0  0  0
    0.2713   -0.5190   -0.3518 C   0  0  0  0  0  0  0  0  0  0  0  0
   -0.7552   -0.2758    0.7619 C   0  0  2  0  0  0  0  0  0  0  0  0
   -1.8734   -1.3354    0.7487 C   0  0  0  0  0  0  0  0  0  0  0  0
   -1.3989    1.0932    0.6199 C   0  0  0  0  0  0  0  0  0  0  0  0
   -1.7418    1.6126   -0.4222 O   0  0  0  0  0  0  0  0  0  0  0  0
   -1.6012    1.6902    1.8323 O   0  0  0  0  0  0  0  0  0  0  0  0
    3.3857    0.7644   -1.3195 H   0  0  0  0  0  0  0  0  0  0  0  0
    2.0697    0.2353   -2.3847 H   0  0  0  0  0  0  0  0  0  0  0  0
    2.8784   -0.9355   -1.3260 H   0  0  0  0  0  0  0  0  0  0  0  0
    1.9771    0.2908    0.6991 H   0  0  0  0  0  0  0  0  0  0  0  0
    1.1714    1.4458   -0.3627 H   0  0  0  0  0  0  0  0  0  0  0  0
   -0.2309   -0.3983   -1.3244 H   0  0  0  0  0  0  0  0  0  0  0  0
    0.5959   -1.5704   -0.2906 H   0  0  0  0  0  0  0  0  0  0  0  0
   -0.2540   -0.3074    1.7410 H   0  0  0  0  0  0  0  0  0  0  0  0
   -1.4389   -2.3360    0.8726 H   0  0  0  0  0  0  0  0  0  0  0  0
   -2.4154   -1.3118   -0.2060 H   0  0  0  0  0  0  0  0  0  0  0  0
   -2.5940   -1.1732    1.5605 H   0  0  0  0  0  0  0  0  0  0  0  0
   -2.0561    2.5341    1.6402 H   0  0  0  0  0  0  0  0  0  0  0  0
  1 11  1  0  0  0  0
  1  9  1  0  0  0  0
  1  2  1  0  0  0  0
  2 12  1  0  0  0  0
  3 15  1  0  0  0  0
  3  2  1  0  0  0  0
  3  4  1  0  0  0  0
  4 16  1  1  0  0  0
  5  4  1  0  0  0  0
  5 17  1  0  0  0  0
  5 19  1  0  0  0  0
  6  4  1  0  0  0  0
  6  8  1  0  0  0  0
  7  6  2  0  0  0  0
 10  1  1  0  0  0  0
 13  2  1  0  0  0  0
 14  3  1  0  0  0  0
 18  5  1  0  0  0  0
 20  8  1  0  0  0  0
M  END
