651
 OpenBabel08181812023D

 21 20  0  0  0  0  0  0  0  0999 V2000
    1.4763    0.5201   -1.3721 C   0  0  0  0  0  0  0  0  0  0  0  0
    1.7295   -0.5680   -0.3252 C   0  0  0  0  0  0  0  0  0  0  0  0
    1.2130   -0.2453    1.0871 C   0  0  0  0  0  0  0  0  0  0  0  0
   -0.2644   -0.5854    1.3820 C   0  0  0  0  0  0  0  0  0  0  0  0
   -1.3072    0.1826    0.5911 C   0  0  0  0  0  0  0  0  0  0  0  0
   -1.6537    1.4335    0.9228 C   0  0  0  0  0  0  0  0  0  0  0  0
   -1.9525   -0.5396   -0.5599 C   0  0  0  0  0  0  0  0  0  0  0  0
    0.4090    0.7407   -1.4948 H   0  0  0  0  0  0  0  0  0  0  0  0
    1.9688    1.4590   -1.0807 H   0  0  0  0  0  0  0  0  0  0  0  0
    1.8754    0.2265   -2.3529 H   0  0  0  0  0  0  0  0  0  0  0  0
    1.2962   -1.5248   -0.6619 H   0  0  0  0  0  0  0  0  0  0  0  0
    2.8153   -0.7424   -0.2662 H   0  0  0  0  0  0  0  0  0  0  0  0
    1.8174   -0.8036    1.8193 H   0  0  0  0  0  0  0  0  0  0  0  0
    1.3835    0.8223    1.3015 H   0  0  0  0  0  0  0  0  0  0  0  0
   -0.4103   -1.6661    1.2224 H   0  0  0  0  0  0  0  0  0  0  0  0
   -0.4361   -0.4066    2.4544 H   0  0  0  0  0  0  0  0  0  0  0  0
   -2.3949    1.9927    0.3507 H   0  0  0  0  0  0  0  0  0  0  0  0
   -1.2052    1.9430    1.7775 H   0  0  0  0  0  0  0  0  0  0  0  0
   -2.6552    0.1025   -1.1056 H   0  0  0  0  0  0  0  0  0  0  0  0
   -1.2021   -0.9185   -1.2712 H   0  0  0  0  0  0  0  0  0  0  0  0
   -2.5026   -1.4230   -0.1976 H   0  0  0  0  0  0  0  0  0  0  0  0
  1  9  1  0  0  0  0
  1  2  1  0  0  0  0
  2 12  1  0  0  0  0
  2  3  1  0  0  0  0
  3 14  1  0  0  0  0
  3  4  1  0  0  0  0
  3 13  1  0  0  0  0
  4 16  1  0  0  0  0
  5  6  2  0  0  0  0
  5  4  1  0  0  0  0
  6 18  1  0  0  0  0
  7 21  1  0  0  0  0
  7  5  1  0  0  0  0
  8  1  1  0  0  0  0
 10  1  1  0  0  0  0
 11  2  1  0  0  0  0
 15  4  1  0  0  0  0
 17  6  1  0  0  0  0
 19  7  1  0  0  0  0
 20  7  1  0  0  0  0
M  END
