623
 OpenBabel08181812023D

 25 24  0  0  0  0  0  0  0  0999 V2000
   -2.5862   -0.5602    0.8056 C   0  0  0  0  0  0  0  0  0  0  0  0
   -1.7172    0.4127    0.0008 C   0  0  0  0  0  0  0  0  0  0  0  0
   -2.5033    0.9790   -1.1863 C   0  0  0  0  0  0  0  0  0  0  0  0
   -0.4066   -0.2312   -0.4818 C   0  0  0  0  0  0  0  0  0  0  0  0
    0.5559   -0.6537    0.6317 C   0  0  0  0  0  0  0  0  0  0  0  0
    1.8809   -1.2252    0.0993 C   0  0  0  0  0  0  0  0  0  0  0  0
    2.7404   -0.2440   -0.6865 C   0  0  0  0  0  0  0  0  0  0  0  0
    3.1716   -0.5189   -1.7940 O   0  0  0  0  0  0  0  0  0  0  0  0
    3.0540    1.0874   -0.0290 C   0  0  0  0  0  0  0  0  0  0  0  0
   -3.5167   -0.0762    1.1333 H   0  0  0  0  0  0  0  0  0  0  0  0
   -2.8633   -1.4309    0.1914 H   0  0  0  0  0  0  0  0  0  0  0  0
   -2.0752   -0.9323    1.7035 H   0  0  0  0  0  0  0  0  0  0  0  0
   -1.4491    1.2564    0.6625 H   0  0  0  0  0  0  0  0  0  0  0  0
   -3.4252    1.4764   -0.8543 H   0  0  0  0  0  0  0  0  0  0  0  0
   -1.9084    1.7109   -1.7504 H   0  0  0  0  0  0  0  0  0  0  0  0
   -2.7908    0.1762   -1.8823 H   0  0  0  0  0  0  0  0  0  0  0  0
   -0.6462   -1.1087   -1.1075 H   0  0  0  0  0  0  0  0  0  0  0  0
    0.1047    0.4796   -1.1529 H   0  0  0  0  0  0  0  0  0  0  0  0
    0.7564    0.2049    1.2932 H   0  0  0  0  0  0  0  0  0  0  0  0
    0.0862   -1.4194    1.2661 H   0  0  0  0  0  0  0  0  0  0  0  0
    1.7009   -2.0939   -0.5485 H   0  0  0  0  0  0  0  0  0  0  0  0
    2.4915   -1.5708    0.9515 H   0  0  0  0  0  0  0  0  0  0  0  0
    3.3219    0.9641    1.0299 H   0  0  0  0  0  0  0  0  0  0  0  0
    2.1616    1.7312   -0.0567 H   0  0  0  0  0  0  0  0  0  0  0  0
    3.8621    1.5864   -0.5723 H   0  0  0  0  0  0  0  0  0  0  0  0
  1 10  1  0  0  0  0
  1 12  1  0  0  0  0
  2 13  1  0  0  0  0
  2  1  1  0  0  0  0
  3 14  1  0  0  0  0
  3  2  1  0  0  0  0
  4  2  1  0  0  0  0
  4  5  1  0  0  0  0
  5 20  1  0  0  0  0
  5 19  1  0  0  0  0
  6  5  1  0  0  0  0
  6 22  1  0  0  0  0
  7  9  1  0  0  0  0
  7  6  1  0  0  0  0
  8  7  2  0  0  0  0
  9 23  1  0  0  0  0
 11  1  1  0  0  0  0
 15  3  1  0  0  0  0
 16  3  1  0  0  0  0
 17  4  1  0  0  0  0
 18  4  1  0  0  0  0
 21  6  1  0  0  0  0
 24  9  1  0  0  0  0
 25  9  1  0  0  0  0
M  END
