376
 OpenBabel08181812023D

 18 17  0  0  1  0  0  0  0  0999 V2000
   -1.7952   -0.8847   -0.8072 C   0  0  0  0  0  0  0  0  0  0  0  0
   -1.0847   -0.2182    0.3711 C   0  0  0  0  0  0  0  0  0  0  0  0
    0.1446    0.6275   -0.0077 C   0  0  1  0  0  0  0  0  0  0  0  0
    0.6855    1.3872    1.2090 C   0  0  0  0  0  0  0  0  0  0  0  0
    1.2458   -0.1945   -0.6790 C   0  0  0  0  0  0  0  0  0  0  0  0
    1.6900   -1.2156    0.2265 O   0  0  0  0  0  0  0  0  0  0  0  0
   -2.7057   -1.4016   -0.4753 H   0  0  0  0  0  0  0  0  0  0  0  0
   -2.0924   -0.1463   -1.5668 H   0  0  0  0  0  0  0  0  0  0  0  0
   -1.1596   -1.6332   -1.2996 H   0  0  0  0  0  0  0  0  0  0  0  0
   -0.7741   -0.9830    1.0989 H   0  0  0  0  0  0  0  0  0  0  0  0
   -1.7955    0.4378    0.8982 H   0  0  0  0  0  0  0  0  0  0  0  0
   -0.1739    1.3667   -0.7654 H   0  0  0  0  0  0  0  0  0  0  0  0
   -0.0924    2.0262    1.6491 H   0  0  0  0  0  0  0  0  0  0  0  0
    1.5347    2.0293    0.9349 H   0  0  0  0  0  0  0  0  0  0  0  0
    1.0294    0.6886    1.9830 H   0  0  0  0  0  0  0  0  0  0  0  0
    0.8666   -0.6456   -1.6130 H   0  0  0  0  0  0  0  0  0  0  0  0
    2.0829    0.4763   -0.9470 H   0  0  0  0  0  0  0  0  0  0  0  0
    2.3939   -1.7166   -0.2096 H   0  0  0  0  0  0  0  0  0  0  0  0
  1  7  1  0  0  0  0
  1  2  1  0  0  0  0
  2 11  1  0  0  0  0
  2 10  1  0  0  0  0
  3 12  1  6  0  0  0
  3  2  1  0  0  0  0
  3  4  1  0  0  0  0
  4 13  1  0  0  0  0
  4 15  1  0  0  0  0
  5  3  1  0  0  0  0
  5  6  1  0  0  0  0
  8  1  1  0  0  0  0
  9  1  1  0  0  0  0
 14  4  1  0  0  0  0
 16  5  1  0  0  0  0
 17  5  1  0  0  0  0
 18  6  1  0  0  0  0
M  END
