634
 OpenBabel08181812023D

 21 22  0  0  0  0  0  0  0  0999 V2000
   -3.0248    1.0304    0.2109 C   0  0  0  0  0  0  0  0  0  0  0  0
   -3.0672   -0.3646    0.4474 C   0  0  0  0  0  0  0  0  0  0  0  0
   -1.9105   -1.1121    0.4093 C   0  0  0  0  0  0  0  0  0  0  0  0
   -0.6598   -0.4978    0.1335 C   0  0  0  0  0  0  0  0  0  0  0  0
    0.5441   -1.2380    0.0832 C   0  0  0  0  0  0  0  0  0  0  0  0
    1.7580   -0.6229   -0.1712 C   0  0  0  0  0  0  0  0  0  0  0  0
    1.7917    0.7782   -0.4116 C   0  0  0  0  0  0  0  0  0  0  0  0
    0.6347    1.5240   -0.3836 C   0  0  0  0  0  0  0  0  0  0  0  0
   -0.6179    0.9179   -0.1050 C   0  0  0  0  0  0  0  0  0  0  0  0
   -1.8270    1.6576   -0.0596 C   0  0  0  0  0  0  0  0  0  0  0  0
    2.9816   -1.4884   -0.1861 C   0  0  0  0  0  0  0  0  0  0  0  0
    2.9545   -2.6920   -0.3095 O   0  0  0  0  0  0  0  0  0  0  0  0
    4.1843   -0.8517   -0.0403 O   0  0  0  0  0  0  0  0  0  0  0  0
   -3.9476    1.6096    0.2444 H   0  0  0  0  0  0  0  0  0  0  0  0
   -4.0220   -0.8460    0.6582 H   0  0  0  0  0  0  0  0  0  0  0  0
   -1.9378   -2.1877    0.5887 H   0  0  0  0  0  0  0  0  0  0  0  0
    0.5293   -2.3159    0.2474 H   0  0  0  0  0  0  0  0  0  0  0  0
    2.7289    1.2782   -0.6666 H   0  0  0  0  0  0  0  0  0  0  0  0
    0.6683    2.5954   -0.5858 H   0  0  0  0  0  0  0  0  0  0  0  0
   -1.7943    2.7327   -0.2423 H   0  0  0  0  0  0  0  0  0  0  0  0
    4.0337    0.0928    0.1387 H   0  0  0  0  0  0  0  0  0  0  0  0
  1 14  1  0  0  0  0
  1  2  2  0  0  0  0
  2 15  1  0  0  0  0
  3  2  1  0  0  0  0
  3 16  1  0  0  0  0
  4  3  2  0  0  0  0
  5  4  1  0  0  0  0
  5 17  1  0  0  0  0
  6  5  2  0  0  0  0
  7  8  2  0  0  0  0
  7  6  1  0  0  0  0
  8  9  1  0  0  0  0
  9 10  2  0  0  0  0
  9  4  1  0  0  0  0
 10  1  1  0  0  0  0
 11  6  1  0  0  0  0
 11 13  1  0  0  0  0
 12 11  2  0  0  0  0
 13 21  1  0  0  0  0
 18  7  1  0  0  0  0
 19  8  1  0  0  0  0
 20 10  1  0  0  0  0
M  END
