401
 OpenBabel08181812023D

 17 17  0  0  0  0  0  0  0  0999 V2000
   -1.9107    1.0054    0.2527 C   0  0  0  0  0  0  0  0  0  0  0  0
   -0.4968    0.5081    0.1377 C   0  0  0  0  0  0  0  0  0  0  0  0
    0.5617    1.4069    0.3454 C   0  0  0  0  0  0  0  0  0  0  0  0
    1.8976    1.0223    0.2525 C   0  0  0  0  0  0  0  0  0  0  0  0
    2.2270   -0.2937   -0.0779 C   0  0  0  0  0  0  0  0  0  0  0  0
    1.2084   -1.2080   -0.3169 C   0  0  0  0  0  0  0  0  0  0  0  0
   -0.1246   -0.8088   -0.1958 C   0  0  0  0  0  0  0  0  0  0  0  0
   -1.1413   -1.8555   -0.4463 N   0  0  0  0  0  0  0  0  0  0  0  0
   -2.2437   -1.7316    0.0942 O   0  0  0  0  0  0  0  0  0  0  0  0
   -0.8198   -2.7991   -1.1727 O   0  0  0  0  0  0  0  0  0  0  0  0
   -1.9133    2.1010    0.3015 H   0  0  0  0  0  0  0  0  0  0  0  0
   -2.3985    0.6107    1.1529 H   0  0  0  0  0  0  0  0  0  0  0  0
   -2.5318    0.6878   -0.5938 H   0  0  0  0  0  0  0  0  0  0  0  0
    0.3161    2.4419    0.5863 H   0  0  0  0  0  0  0  0  0  0  0  0
    2.6836    1.7555    0.4332 H   0  0  0  0  0  0  0  0  0  0  0  0
    3.2678   -0.6045   -0.1577 H   0  0  0  0  0  0  0  0  0  0  0  0
    1.4186   -2.2382   -0.5958 H   0  0  0  0  0  0  0  0  0  0  0  0
  1 11  1  0  0  0  0
  1 12  1  0  0  0  0
  2  1  1  0  0  0  0
  2  3  2  0  0  0  0
  3 14  1  0  0  0  0
  4  3  1  0  0  0  0
  4 15  1  0  0  0  0
  5  4  2  0  0  0  0
  6  7  2  0  0  0  0
  6  5  1  0  0  0  0
  7  2  1  0  0  0  0
  8  7  1  0  0  0  0
  8  9  2  0  0  0  0
 10  8  2  0  0  0  0
 13  1  1  0  0  0  0
 16  5  1  0  0  0  0
 17  6  1  0  0  0  0
M  END
