644
 OpenBabel08181812023D

 15 14  0  0  0  0  0  0  0  0999 V2000
   -2.1134    0.5449   -0.0650 C   0  0  0  0  0  0  0  0  0  0  0  0
   -0.9868   -0.4296    0.3088 C   0  0  0  0  0  0  0  0  0  0  0  0
    0.0641   -0.5265   -0.7577 C   0  0  0  0  0  0  0  0  0  0  0  0
    1.3748   -0.2635   -0.6527 C   0  0  0  0  0  0  0  0  0  0  0  0
    2.1267    0.1801    0.5650 C   0  0  0  0  0  0  0  0  0  0  0  0
   -2.8970    0.5611    0.7045 H   0  0  0  0  0  0  0  0  0  0  0  0
   -2.5833    0.2589   -1.0167 H   0  0  0  0  0  0  0  0  0  0  0  0
   -1.7273    1.5666   -0.1810 H   0  0  0  0  0  0  0  0  0  0  0  0
   -0.5449   -0.1340    1.2705 H   0  0  0  0  0  0  0  0  0  0  0  0
   -1.4255   -1.4299    0.4678 H   0  0  0  0  0  0  0  0  0  0  0  0
   -0.3070   -0.8399   -1.7397 H   0  0  0  0  0  0  0  0  0  0  0  0
    1.9830   -0.3850   -1.5543 H   0  0  0  0  0  0  0  0  0  0  0  0
    2.9156   -0.5435    0.8223 H   0  0  0  0  0  0  0  0  0  0  0  0
    1.4850    0.3013    1.4452 H   0  0  0  0  0  0  0  0  0  0  0  0
    2.6361    1.1390    0.3831 H   0  0  0  0  0  0  0  0  0  0  0  0
  1  2  1  0  0  0  0
  1  6  1  0  0  0  0
  2 10  1  0  0  0  0
  2  9  1  0  0  0  0
  3  4  2  0  0  0  0
  3  2  1  0  0  0  0
  4  5  1  0  0  0  0
  5 13  1  0  0  0  0
  5 14  1  0  0  0  0
  7  1  1  0  0  0  0
  8  1  1  0  0  0  0
 11  3  1  0  0  0  0
 12  4  1  0  0  0  0
 15  5  1  0  0  0  0
M  END
