522
 OpenBabel08181812023D

 19 19  0  0  0  0  0  0  0  0999 V2000
   -2.6061   -0.7414    0.1652 C   0  0  0  0  0  0  0  0  0  0  0  0
   -1.2102   -0.1790    0.0876 C   0  0  0  0  0  0  0  0  0  0  0  0
   -0.1022   -1.0161   -0.0761 C   0  0  0  0  0  0  0  0  0  0  0  0
    1.2005   -0.5001   -0.1525 C   0  0  0  0  0  0  0  0  0  0  0  0
    1.3892    0.8810   -0.0666 C   0  0  0  0  0  0  0  0  0  0  0  0
    0.2891    1.7279    0.0989 C   0  0  0  0  0  0  0  0  0  0  0  0
   -1.0030    1.2038    0.1759 C   0  0  0  0  0  0  0  0  0  0  0  0
    0.5399    3.0759    0.1776 O   0  0  0  0  0  0  0  0  0  0  0  0
    2.3821   -1.4243   -0.2966 C   0  0  0  0  0  0  0  0  0  0  0  0
   -3.0901   -0.4780    1.1168 H   0  0  0  0  0  0  0  0  0  0  0  0
   -3.2418   -0.3447   -0.6398 H   0  0  0  0  0  0  0  0  0  0  0  0
   -2.6008   -1.8348    0.0817 H   0  0  0  0  0  0  0  0  0  0  0  0
   -0.2549   -2.0945   -0.1501 H   0  0  0  0  0  0  0  0  0  0  0  0
    2.3862    1.3179   -0.1298 H   0  0  0  0  0  0  0  0  0  0  0  0
   -1.8561    1.8771    0.2988 H   0  0  0  0  0  0  0  0  0  0  0  0
   -0.3052    3.5399    0.2885 H   0  0  0  0  0  0  0  0  0  0  0  0
    2.7533   -1.7436    0.6893 H   0  0  0  0  0  0  0  0  0  0  0  0
    2.1146   -2.3319   -0.8528 H   0  0  0  0  0  0  0  0  0  0  0  0
    3.2157   -0.9349   -0.8162 H   0  0  0  0  0  0  0  0  0  0  0  0
  1 10  1  0  0  0  0
  2  1  1  0  0  0  0
  2  7  2  0  0  0  0
  3  2  1  0  0  0  0
  4  3  2  0  0  0  0
  4  5  1  0  0  0  0
  5  6  2  0  0  0  0
  6  7  1  0  0  0  0
  6  8  1  0  0  0  0
  7 15  1  0  0  0  0
  8 16  1  0  0  0  0
  9  4  1  0  0  0  0
  9 17  1  0  0  0  0
 11  1  1  0  0  0  0
 12  1  1  0  0  0  0
 13  3  1  0  0  0  0
 14  5  1  0  0  0  0
 18  9  1  0  0  0  0
 19  9  1  0  0  0  0
M  END
