436
 OpenBabel08181812023D

 15 15  0  0  0  0  0  0  0  0999 V2000
   -2.2505    0.0612   -0.1533 C   0  0  0  0  0  0  0  0  0  0  0  0
   -0.7500   -0.0204   -0.0488 C   0  0  0  0  0  0  0  0  0  0  0  0
   -0.0919   -1.2509    0.0635 C   0  0  0  0  0  0  0  0  0  0  0  0
    1.2996   -1.3126    0.1597 C   0  0  0  0  0  0  0  0  0  0  0  0
    2.0668   -0.1476    0.1460 C   0  0  0  0  0  0  0  0  0  0  0  0
    1.4061    1.0751    0.0339 C   0  0  0  0  0  0  0  0  0  0  0  0
    0.0203    1.1530   -0.0627 C   0  0  0  0  0  0  0  0  0  0  0  0
    2.4317    2.6898    0.0117 Br  0  0  0  0  0  0  0  0  0  0  0  0
   -2.6753    0.6490    0.6728 H   0  0  0  0  0  0  0  0  0  0  0  0
   -2.5579    0.5509   -1.0883 H   0  0  0  0  0  0  0  0  0  0  0  0
   -2.7067   -0.9357   -0.1282 H   0  0  0  0  0  0  0  0  0  0  0  0
   -0.6768   -2.1716    0.0757 H   0  0  0  0  0  0  0  0  0  0  0  0
    1.7976   -2.2786    0.2467 H   0  0  0  0  0  0  0  0  0  0  0  0
    3.1516   -0.1865    0.2206 H   0  0  0  0  0  0  0  0  0  0  0  0
   -0.4646    2.1251   -0.1493 H   0  0  0  0  0  0  0  0  0  0  0  0
  1 11  1  0  0  0  0
  1  2  1  0  0  0  0
  1  9  1  0  0  0  0
  2  3  1  0  0  0  0
  3 12  1  0  0  0  0
  3  4  2  0  0  0  0
  4 13  1  0  0  0  0
  5  4  1  0  0  0  0
  5 14  1  0  0  0  0
  6  5  2  0  0  0  0
  7  2  2  0  0  0  0
  7  6  1  0  0  0  0
  8  6  1  0  0  0  0
 10  1  1  0  0  0  0
 15  7  1  0  0  0  0
M  END
