584
 OpenBabel08181812023D

 15 15  0  0  0  0  0  0  0  0999 V2000
   -2.2193   -0.3330   -0.1754 C   0  0  0  0  0  0  0  0  0  0  0  0
   -0.7378   -0.0877   -0.0570 C   0  0  0  0  0  0  0  0  0  0  0  0
   -0.2336    1.2169    0.0543 C   0  0  0  0  0  0  0  0  0  0  0  0
    1.1366    1.4451    0.1639 C   0  0  0  0  0  0  0  0  0  0  0  0
    2.0396    0.3796    0.1655 C   0  0  0  0  0  0  0  0  0  0  0  0
    1.5365   -0.9147    0.0548 C   0  0  0  0  0  0  0  0  0  0  0  0
    0.1663   -1.1564   -0.0556 C   0  0  0  0  0  0  0  0  0  0  0  0
    2.6403   -2.2669    0.0539 Cl  0  0  0  0  0  0  0  0  0  0  0  0
   -2.4457   -1.4031   -0.2534 H   0  0  0  0  0  0  0  0  0  0  0  0
   -2.7570    0.0641    0.6974 H   0  0  0  0  0  0  0  0  0  0  0  0
   -2.6332    0.1663   -1.0631 H   0  0  0  0  0  0  0  0  0  0  0  0
   -0.9250    2.0608    0.0547 H   0  0  0  0  0  0  0  0  0  0  0  0
    1.5138    2.4644    0.2497 H   0  0  0  0  0  0  0  0  0  0  0  0
    3.1116    0.5462    0.2505 H   0  0  0  0  0  0  0  0  0  0  0  0
   -0.1930   -2.1816   -0.1403 H   0  0  0  0  0  0  0  0  0  0  0  0
  1  2  1  0  0  0  0
  1 10  1  0  0  0  0
  2  7  2  0  0  0  0
  2  3  1  0  0  0  0
  3 12  1  0  0  0  0
  3  4  2  0  0  0  0
  4  5  1  0  0  0  0
  4 13  1  0  0  0  0
  5 14  1  0  0  0  0
  6  5  2  0  0  0  0
  7  6  1  0  0  0  0
  8  6  1  0  0  0  0
  9  1  1  0  0  0  0
 11  1  1  0  0  0  0
 15  7  1  0  0  0  0
M  END
