470
 OpenBabel08181812023D

 19 18  0  0  0  0  0  0  0  0999 V2000
    2.2411   -0.5215    0.6397 C   0  0  0  0  0  0  0  0  0  0  0  0
    1.6828   -0.3453   -0.7722 C   0  0  0  0  0  0  0  0  0  0  0  0
    0.7666    0.8863   -0.9188 C   0  0  0  0  0  0  0  0  0  0  0  0
   -0.4667    0.8551   -0.0246 C   0  0  0  0  0  0  0  0  0  0  0  0
   -0.6164    1.6609    0.8796 O   0  0  0  0  0  0  0  0  0  0  0  0
   -1.5014   -0.2254   -0.3110 C   0  0  0  0  0  0  0  0  0  0  0  0
   -2.7416   -0.1482    0.5698 C   0  0  0  0  0  0  0  0  0  0  0  0
    2.9210   -1.3823    0.6910 H   0  0  0  0  0  0  0  0  0  0  0  0
    2.8003    0.3697    0.9569 H   0  0  0  0  0  0  0  0  0  0  0  0
    1.4424   -0.6822    1.3775 H   0  0  0  0  0  0  0  0  0  0  0  0
    1.1397   -1.2522   -1.0790 H   0  0  0  0  0  0  0  0  0  0  0  0
    2.5123   -0.2364   -1.4868 H   0  0  0  0  0  0  0  0  0  0  0  0
    0.4344    0.9622   -1.9671 H   0  0  0  0  0  0  0  0  0  0  0  0
    1.3226    1.8010   -0.6714 H   0  0  0  0  0  0  0  0  0  0  0  0
   -1.7605   -0.1668   -1.3821 H   0  0  0  0  0  0  0  0  0  0  0  0
   -0.9994   -1.2023   -0.2018 H   0  0  0  0  0  0  0  0  0  0  0  0
   -3.4372   -0.9642    0.3357 H   0  0  0  0  0  0  0  0  0  0  0  0
   -2.4736   -0.2136    1.6316 H   0  0  0  0  0  0  0  0  0  0  0  0
   -3.2662    0.8050    0.4297 H   0  0  0  0  0  0  0  0  0  0  0  0
  1  8  1  0  0  0  0
  1  9  1  0  0  0  0
  1 10  1  0  0  0  0
  2  1  1  0  0  0  0
  3  2  1  0  0  0  0
  3 14  1  0  0  0  0
  3  4  1  0  0  0  0
  4  5  2  0  0  0  0
  6 16  1  0  0  0  0
  6  4  1  0  0  0  0
  6  7  1  0  0  0  0
  7 18  1  0  0  0  0
 11  2  1  0  0  0  0
 12  2  1  0  0  0  0
 13  3  1  0  0  0  0
 15  6  1  0  0  0  0
 17  7  1  0  0  0  0
 19  7  1  0  0  0  0
M  END
