240
 OpenBabel08181812023D

 21 20  0  0  1  0  0  0  0  0999 V2000
   -2.5082   -0.0047    0.5718 C   0  0  0  0  0  0  0  0  0  0  0  0
   -1.3950    0.9542    0.1432 C   0  0  0  0  0  0  0  0  0  0  0  0
   -0.4659    0.4016   -0.9471 C   0  0  0  0  0  0  0  0  0  0  0  0
    0.3290   -0.8603   -0.5845 C   0  0  2  0  0  0  0  0  0  0  0  0
    1.2294   -0.7235    0.6536 C   0  0  0  0  0  0  0  0  0  0  0  0
    2.2946    0.3715    0.5669 C   0  0  0  0  0  0  0  0  0  0  0  0
    1.0772   -1.3186   -1.7263 O   0  0  0  0  0  0  0  0  0  0  0  0
   -3.1829    0.4732    1.2950 H   0  0  0  0  0  0  0  0  0  0  0  0
   -3.1138   -0.3197   -0.2903 H   0  0  0  0  0  0  0  0  0  0  0  0
   -2.1119   -0.9129    1.0463 H   0  0  0  0  0  0  0  0  0  0  0  0
   -1.8490    1.8830   -0.2355 H   0  0  0  0  0  0  0  0  0  0  0  0
   -0.8036    1.2500    1.0240 H   0  0  0  0  0  0  0  0  0  0  0  0
    0.2456    1.1913   -1.2444 H   0  0  0  0  0  0  0  0  0  0  0  0
   -1.0558    0.1669   -1.8473 H   0  0  0  0  0  0  0  0  0  0  0  0
   -0.3766   -1.6832   -0.3936 H   0  0  0  0  0  0  0  0  0  0  0  0
    0.5942   -0.5533    1.5376 H   0  0  0  0  0  0  0  0  0  0  0  0
    1.7163   -1.6981    0.8074 H   0  0  0  0  0  0  0  0  0  0  0  0
    1.8541    1.3758    0.4997 H   0  0  0  0  0  0  0  0  0  0  0  0
    2.9513    0.2310   -0.3043 H   0  0  0  0  0  0  0  0  0  0  0  0
    2.9396    0.3564    1.4552 H   0  0  0  0  0  0  0  0  0  0  0  0
    1.6312   -0.5807   -2.0273 H   0  0  0  0  0  0  0  0  0  0  0  0
  1 10  1  0  0  0  0
  1  8  1  0  0  0  0
  2  1  1  0  0  0  0
  2 12  1  0  0  0  0
  3  4  1  0  0  0  0
  3  2  1  0  0  0  0
  4 15  1  1  0  0  0
  4  5  1  0  0  0  0
  5 17  1  0  0  0  0
  5 16  1  0  0  0  0
  6  5  1  0  0  0  0
  6 20  1  0  0  0  0
  7  4  1  0  0  0  0
  9  1  1  0  0  0  0
 11  2  1  0  0  0  0
 13  3  1  0  0  0  0
 14  3  1  0  0  0  0
 18  6  1  0  0  0  0
 19  6  1  0  0  0  0
 21  7  1  0  0  0  0
M  END
