195
 OpenBabel08181812023D

 16 15  0  0  0  0  0  0  0  0999 V2000
   -1.2177    1.2462    0.1952 C   0  0  0  0  0  0  0  0  0  0  0  0
   -0.3629    0.0781   -0.3163 C   0  0  0  0  0  0  0  0  0  0  0  0
   -1.1925   -1.2078   -0.4398 C   0  0  0  0  0  0  0  0  0  0  0  0
    0.8097   -0.1591    0.6463 C   0  0  0  0  0  0  0  0  0  0  0  0
    0.6153   -0.4624    1.8111 O   0  0  0  0  0  0  0  0  0  0  0  0
    2.2033    0.0020    0.0804 C   0  0  0  0  0  0  0  0  0  0  0  0
   -1.6062    1.0176    1.1963 H   0  0  0  0  0  0  0  0  0  0  0  0
   -0.6392    2.1784    0.2591 H   0  0  0  0  0  0  0  0  0  0  0  0
   -2.0681    1.4208   -0.4779 H   0  0  0  0  0  0  0  0  0  0  0  0
    0.0460    0.3383   -1.3055 H   0  0  0  0  0  0  0  0  0  0  0  0
   -0.5960   -2.0426   -0.8333 H   0  0  0  0  0  0  0  0  0  0  0  0
   -2.0428   -1.0501   -1.1174 H   0  0  0  0  0  0  0  0  0  0  0  0
   -1.5804   -1.5009    0.5446 H   0  0  0  0  0  0  0  0  0  0  0  0
    2.3269    1.0180   -0.3247 H   0  0  0  0  0  0  0  0  0  0  0  0
    2.9598   -0.1889    0.8480 H   0  0  0  0  0  0  0  0  0  0  0  0
    2.3446   -0.6874   -0.7661 H   0  0  0  0  0  0  0  0  0  0  0  0
  1  8  1  0  0  0  0
  1  7  1  0  0  0  0
  2  1  1  0  0  0  0
  2  4  1  0  0  0  0
  3  2  1  0  0  0  0
  3 13  1  0  0  0  0
  4  5  2  0  0  0  0
  6  4  1  0  0  0  0
  6 15  1  0  0  0  0
  9  1  1  0  0  0  0
 10  2  1  0  0  0  0
 11  3  1  0  0  0  0
 12  3  1  0  0  0  0
 14  6  1  0  0  0  0
 16  6  1  0  0  0  0
M  END
