287
 OpenBabel08181812023D

 26 25  0  0  1  0  0  0  0  0999 V2000
    3.8682    0.4745   -0.1022 C   0  0  0  0  0  0  0  0  0  0  0  0
    2.7068   -0.4740    0.1922 C   0  0  0  0  0  0  0  0  0  0  0  0
    1.3401    0.1157   -0.1648 C   0  0  0  0  0  0  0  0  0  0  0  0
    0.1816   -0.8475    0.1036 C   0  0  0  0  0  0  0  0  0  0  0  0
   -1.2126   -0.3526   -0.3202 C   0  0  1  0  0  0  0  0  0  0  0  0
   -2.2138   -1.5129   -0.2785 C   0  0  0  0  0  0  0  0  0  0  0  0
   -1.6844    0.8391    0.5317 C   0  0  0  0  0  0  0  0  0  0  0  0
   -2.9718    1.5061    0.0435 C   0  0  0  0  0  0  0  0  0  0  0  0
    3.7708    1.4109    0.4661 H   0  0  0  0  0  0  0  0  0  0  0  0
    3.9026    0.7397   -1.1689 H   0  0  0  0  0  0  0  0  0  0  0  0
    4.8357    0.0257    0.1600 H   0  0  0  0  0  0  0  0  0  0  0  0
    2.7144   -0.7487    1.2598 H   0  0  0  0  0  0  0  0  0  0  0  0
    2.8493   -1.4163   -0.3619 H   0  0  0  0  0  0  0  0  0  0  0  0
    1.2005    1.0528    0.3980 H   0  0  0  0  0  0  0  0  0  0  0  0
    1.3364    0.3994   -1.2316 H   0  0  0  0  0  0  0  0  0  0  0  0
    0.3887   -1.7934   -0.4248 H   0  0  0  0  0  0  0  0  0  0  0  0
    0.1577   -1.1047    1.1777 H   0  0  0  0  0  0  0  0  0  0  0  0
   -1.1383   -0.0049   -1.3676 H   0  0  0  0  0  0  0  0  0  0  0  0
   -3.2088   -1.2175   -0.6354 H   0  0  0  0  0  0  0  0  0  0  0  0
   -2.3258   -1.8917    0.7493 H   0  0  0  0  0  0  0  0  0  0  0  0
   -1.8723   -2.3492   -0.9045 H   0  0  0  0  0  0  0  0  0  0  0  0
   -1.8155    0.4948    1.5722 H   0  0  0  0  0  0  0  0  0  0  0  0
   -0.8880    1.5977    0.5616 H   0  0  0  0  0  0  0  0  0  0  0  0
   -3.2215    2.3808    0.6591 H   0  0  0  0  0  0  0  0  0  0  0  0
   -2.8678    1.8518   -0.9956 H   0  0  0  0  0  0  0  0  0  0  0  0
   -3.8320    0.8246    0.0812 H   0  0  0  0  0  0  0  0  0  0  0  0
  1 11  1  0  0  0  0
  1  2  1  0  0  0  0
  1  9  1  0  0  0  0
  2 12  1  0  0  0  0
  3  4  1  0  0  0  0
  3  2  1  0  0  0  0
  3 14  1  0  0  0  0
  4 17  1  0  0  0  0
  5 18  1  6  0  0  0
  5  6  1  0  0  0  0
  5  4  1  0  0  0  0
  5  7  1  0  0  0  0
  6 20  1  0  0  0  0
  7 23  1  0  0  0  0
  7 22  1  0  0  0  0
  8 26  1  0  0  0  0
  8  7  1  0  0  0  0
  8 24  1  0  0  0  0
 10  1  1  0  0  0  0
 13  2  1  0  0  0  0
 15  3  1  0  0  0  0
 16  4  1  0  0  0  0
 19  6  1  0  0  0  0
 21  6  1  0  0  0  0
 25  8  1  0  0  0  0
M  END
