536
 OpenBabel08181812023D

 17 17  0  0  0  0  0  0  0  0999 V2000
    2.7013    0.5077    0.2359 C   0  0  0  0  0  0  0  0  0  0  0  0
    1.9238   -0.6585   -0.0058 O   0  0  0  0  0  0  0  0  0  0  0  0
    0.5638   -0.5200   -0.0574 C   0  0  0  0  0  0  0  0  0  0  0  0
   -0.1635   -1.6948   -0.2978 C   0  0  0  0  0  0  0  0  0  0  0  0
   -1.5516   -1.6328   -0.3639 C   0  0  0  0  0  0  0  0  0  0  0  0
   -2.2381   -0.4283   -0.1966 C   0  0  0  0  0  0  0  0  0  0  0  0
   -1.5036    0.7334    0.0418 C   0  0  0  0  0  0  0  0  0  0  0  0
   -0.1036    0.6994    0.1135 C   0  0  0  0  0  0  0  0  0  0  0  0
   -2.2023    1.9043    0.2026 O   0  0  0  0  0  0  0  0  0  0  0  0
    2.5598    1.2600   -0.5570 H   0  0  0  0  0  0  0  0  0  0  0  0
    3.7449    0.1773    0.2374 H   0  0  0  0  0  0  0  0  0  0  0  0
    2.4618    0.9586    1.2126 H   0  0  0  0  0  0  0  0  0  0  0  0
    0.3752   -2.6317   -0.4276 H   0  0  0  0  0  0  0  0  0  0  0  0
   -2.1170   -2.5459   -0.5508 H   0  0  0  0  0  0  0  0  0  0  0  0
   -3.3240   -0.3757   -0.2477 H   0  0  0  0  0  0  0  0  0  0  0  0
    0.4456    1.6220    0.3009 H   0  0  0  0  0  0  0  0  0  0  0  0
   -1.5723    2.6251    0.3599 H   0  0  0  0  0  0  0  0  0  0  0  0
  1 11  1  0  0  0  0
  1 12  1  0  0  0  0
  2  1  1  0  0  0  0
  3  2  1  0  0  0  0
  3  8  2  0  0  0  0
  4  3  1  0  0  0  0
  5  4  2  0  0  0  0
  5  6  1  0  0  0  0
  6  7  2  0  0  0  0
  7  8  1  0  0  0  0
  7  9  1  0  0  0  0
  8 16  1  0  0  0  0
  9 17  1  0  0  0  0
 10  1  1  0  0  0  0
 13  4  1  0  0  0  0
 14  5  1  0  0  0  0
 15  6  1  0  0  0  0
M  END
