388
 OpenBabel08181812023D

 17 16  0  0  0  0  0  0  0  0999 V2000
   -1.7192   -0.4565   -0.7287 C   0  0  0  0  0  0  0  0  0  0  0  0
   -0.4280    0.2097   -0.2432 C   0  0  0  0  0  0  0  0  0  0  0  0
   -0.6382    0.9299    1.0918 C   0  0  0  0  0  0  0  0  0  0  0  0
    0.7016   -0.8368   -0.1467 C   0  0  0  0  0  0  0  0  0  0  0  0
    2.0584   -0.2936    0.2740 C   0  0  0  0  0  0  0  0  0  0  0  0
    2.7080   -0.7047    1.2041 O   0  0  0  0  0  0  0  0  0  0  0  0
    2.5533    0.7293   -0.4954 O   0  0  0  0  0  0  0  0  0  0  0  0
   -1.5812   -0.9484   -1.7015 H   0  0  0  0  0  0  0  0  0  0  0  0
   -2.0552   -1.2193   -0.0110 H   0  0  0  0  0  0  0  0  0  0  0  0
   -2.5264    0.2810   -0.8330 H   0  0  0  0  0  0  0  0  0  0  0  0
   -0.1462    0.9669   -0.9998 H   0  0  0  0  0  0  0  0  0  0  0  0
   -0.9202    0.2124    1.8762 H   0  0  0  0  0  0  0  0  0  0  0  0
   -1.4414    1.6747    1.0133 H   0  0  0  0  0  0  0  0  0  0  0  0
    0.2706    1.4479    1.4268 H   0  0  0  0  0  0  0  0  0  0  0  0
    0.4326   -1.6117    0.5828 H   0  0  0  0  0  0  0  0  0  0  0  0
    0.8250   -1.3367   -1.1221 H   0  0  0  0  0  0  0  0  0  0  0  0
    1.9066    0.9557   -1.1874 H   0  0  0  0  0  0  0  0  0  0  0  0
  1  2  1  0  0  0  0
  1  9  1  0  0  0  0
  2  4  1  0  0  0  0
  2  3  1  0  0  0  0
  3 14  1  0  0  0  0
  3 12  1  0  0  0  0
  4  5  1  0  0  0  0
  4 15  1  0  0  0  0
  5  6  2  0  0  0  0
  7  5  1  0  0  0  0
  8  1  1  0  0  0  0
 10  1  1  0  0  0  0
 11  2  1  0  0  0  0
 13  3  1  0  0  0  0
 16  4  1  0  0  0  0
 17  7  1  0  0  0  0
M  END
