540
 OpenBabel08181812023D

 15 15  0  0  0  0  0  0  0  0999 V2000
   -0.6341    1.6557    0.3708 C   0  0  0  0  0  0  0  0  0  0  0  0
    0.6364    1.1583    0.6654 C   0  0  0  0  0  0  0  0  0  0  0  0
    0.9236   -0.1509    0.2917 C   0  0  0  0  0  0  0  0  0  0  0  0
    0.0009   -0.9692   -0.3562 C   0  0  0  0  0  0  0  0  0  0  0  0
   -1.2641   -0.4507   -0.6410 C   0  0  0  0  0  0  0  0  0  0  0  0
   -1.5815    0.8656   -0.2760 C   0  0  0  0  0  0  0  0  0  0  0  0
   -2.2322   -1.1777   -1.2725 O   0  0  0  0  0  0  0  0  0  0  0  0
    2.2647   -0.7099    0.5903 N   0  0  0  0  0  0  0  0  0  0  0  0
    3.0731    0.0218    1.1634 O   0  0  0  0  0  0  0  0  0  0  0  0
    2.4876   -1.8733    0.2457 O   0  0  0  0  0  0  0  0  0  0  0  0
   -0.8899    2.6770    0.6505 H   0  0  0  0  0  0  0  0  0  0  0  0
    1.3927    1.7541    1.1689 H   0  0  0  0  0  0  0  0  0  0  0  0
    0.2855   -1.9864   -0.6235 H   0  0  0  0  0  0  0  0  0  0  0  0
   -2.5739    1.2499   -0.5078 H   0  0  0  0  0  0  0  0  0  0  0  0
   -1.8888   -2.0641   -1.4695 H   0  0  0  0  0  0  0  0  0  0  0  0
  1 11  1  0  0  0  0
  1  2  1  0  0  0  0
  2 12  1  0  0  0  0
  3  8  1  0  0  0  0
  3  2  2  0  0  0  0
  4  3  1  0  0  0  0
  5  4  2  0  0  0  0
  5  6  1  0  0  0  0
  6  1  2  0  0  0  0
  7  5  1  0  0  0  0
  8  9  2  0  0  0  0
 10  8  2  0  0  0  0
 13  4  1  0  0  0  0
 14  6  1  0  0  0  0
 15  7  1  0  0  0  0
M  END
