579
 OpenBabel08181812023D

 15 15  0  0  0  0  0  0  0  0999 V2000
    0.4605    1.2543   -0.0237 C   0  0  0  0  0  0  0  0  0  0  0  0
   -0.8776    1.2457    0.3591 C   0  0  0  0  0  0  0  0  0  0  0  0
   -1.5771    0.0401    0.4554 C   0  0  0  0  0  0  0  0  0  0  0  0
   -0.9142   -1.1537    0.1624 C   0  0  0  0  0  0  0  0  0  0  0  0
    0.4271   -1.1457   -0.2213 C   0  0  0  0  0  0  0  0  0  0  0  0
    1.1421    0.0596   -0.3223 C   0  0  0  0  0  0  0  0  0  0  0  0
    2.4722    0.0739   -0.7028 N   0  0  0  0  0  0  0  0  0  0  0  0
   -2.9019    0.0916    0.8396 O   0  0  0  0  0  0  0  0  0  0  0  0
    0.9896    2.2065   -0.0931 H   0  0  0  0  0  0  0  0  0  0  0  0
   -1.3934    2.1779    0.5875 H   0  0  0  0  0  0  0  0  0  0  0  0
   -1.4459   -2.1056    0.2326 H   0  0  0  0  0  0  0  0  0  0  0  0
    0.9249   -2.0906   -0.4456 H   0  0  0  0  0  0  0  0  0  0  0  0
    2.9818    0.9401   -0.7731 H   0  0  0  0  0  0  0  0  0  0  0  0
    2.9611   -0.7808   -0.9158 H   0  0  0  0  0  0  0  0  0  0  0  0
   -3.2494   -0.8134    0.8611 H   0  0  0  0  0  0  0  0  0  0  0  0
  1  2  2  0  0  0  0
  2  3  1  0  0  0  0
  2 10  1  0  0  0  0
  3  8  1  0  0  0  0
  4 11  1  0  0  0  0
  4  3  2  0  0  0  0
  5  4  1  0  0  0  0
  6  5  2  0  0  0  0
  6  1  1  0  0  0  0
  7  6  1  0  0  0  0
  8 15  1  0  0  0  0
  9  1  1  0  0  0  0
 12  5  1  0  0  0  0
 13  7  1  0  0  0  0
 14  7  1  0  0  0  0
M  END
