437
 OpenBabel08181812023D

 15 15  0  0  0  0  0  0  0  0999 V2000
    2.2787    0.1695   -0.0323 C   0  0  0  0  0  0  0  0  0  0  0  0
    0.7767    0.0637   -0.0104 C   0  0  0  0  0  0  0  0  0  0  0  0
   -0.0322    1.1968    0.1360 C   0  0  0  0  0  0  0  0  0  0  0  0
   -1.4260    1.1031    0.1568 C   0  0  0  0  0  0  0  0  0  0  0  0
   -2.0200   -0.1491    0.0287 C   0  0  0  0  0  0  0  0  0  0  0  0
   -1.2456   -1.2993   -0.1187 C   0  0  0  0  0  0  0  0  0  0  0  0
    0.1435   -1.1817   -0.1368 C   0  0  0  0  0  0  0  0  0  0  0  0
   -3.9257   -0.2964    0.0551 Br  0  0  0  0  0  0  0  0  0  0  0  0
    2.6089    1.2095    0.0778 H   0  0  0  0  0  0  0  0  0  0  0  0
    2.7314   -0.4158    0.7810 H   0  0  0  0  0  0  0  0  0  0  0  0
    2.6918   -0.2173   -0.9750 H   0  0  0  0  0  0  0  0  0  0  0  0
    0.4321    2.1794    0.2365 H   0  0  0  0  0  0  0  0  0  0  0  0
   -2.0400    1.9947    0.2715 H   0  0  0  0  0  0  0  0  0  0  0  0
   -1.7212   -2.2734   -0.2179 H   0  0  0  0  0  0  0  0  0  0  0  0
    0.7476   -2.0836   -0.2523 H   0  0  0  0  0  0  0  0  0  0  0  0
  1  2  1  0  0  0  0
  1  9  1  0  0  0  0
  1 10  1  0  0  0  0
  2  3  2  0  0  0  0
  3  4  1  0  0  0  0
  3 12  1  0  0  0  0
  4 13  1  0  0  0  0
  5  8  1  0  0  0  0
  5  4  2  0  0  0  0
  6  5  1  0  0  0  0
  7  6  2  0  0  0  0
  7  2  1  0  0  0  0
 11  1  1  0  0  0  0
 14  6  1  0  0  0  0
 15  7  1  0  0  0  0
M  END
