509
 OpenBabel08181812023D

 26 26  0  0  0  0  0  0  0  0999 V2000
   -3.8830   -0.5082    0.8594 C   0  0  0  0  0  0  0  0  0  0  0  0
   -3.2600    0.5580   -0.0441 C   0  0  0  0  0  0  0  0  0  0  0  0
   -1.7378    0.6913    0.0888 C   0  0  0  0  0  0  0  0  0  0  0  0
   -0.9472   -0.5357   -0.4019 C   0  0  0  0  0  0  0  0  0  0  0  0
    0.5479   -0.3540   -0.3056 C   0  0  0  0  0  0  0  0  0  0  0  0
    1.2580   -0.7346    0.8412 C   0  0  0  0  0  0  0  0  0  0  0  0
    2.6312   -0.5304    0.9554 C   0  0  0  0  0  0  0  0  0  0  0  0
    3.3539    0.0711   -0.0881 C   0  0  0  0  0  0  0  0  0  0  0  0
    2.6523    0.4520   -1.2441 C   0  0  0  0  0  0  0  0  0  0  0  0
    1.2790    0.2418   -1.3423 C   0  0  0  0  0  0  0  0  0  0  0  0
    4.7417    0.2210   -0.0096 N   0  0  0  0  0  0  0  0  0  0  0  0
   -3.6468   -0.3160    1.9164 H   0  0  0  0  0  0  0  0  0  0  0  0
   -4.9769   -0.5227    0.7613 H   0  0  0  0  0  0  0  0  0  0  0  0
   -3.5204   -1.5164    0.6171 H   0  0  0  0  0  0  0  0  0  0  0  0
   -3.7182    1.5330    0.1841 H   0  0  0  0  0  0  0  0  0  0  0  0
   -3.5133    0.3437   -1.0959 H   0  0  0  0  0  0  0  0  0  0  0  0
   -1.4751    0.8894    1.1415 H   0  0  0  0  0  0  0  0  0  0  0  0
   -1.3990    1.5724   -0.4787 H   0  0  0  0  0  0  0  0  0  0  0  0
   -1.2423   -1.4226    0.1788 H   0  0  0  0  0  0  0  0  0  0  0  0
   -1.2279   -0.7402   -1.4481 H   0  0  0  0  0  0  0  0  0  0  0  0
    0.7242   -1.2080    1.6682 H   0  0  0  0  0  0  0  0  0  0  0  0
    3.1546   -0.8471    1.8598 H   0  0  0  0  0  0  0  0  0  0  0  0
    3.1933    0.9094   -2.0750 H   0  0  0  0  0  0  0  0  0  0  0  0
    0.7623    0.5465   -2.2551 H   0  0  0  0  0  0  0  0  0  0  0  0
    5.1312    0.9470   -0.6014 H   0  0  0  0  0  0  0  0  0  0  0  0
    5.1184    0.2593    0.9315 H   0  0  0  0  0  0  0  0  0  0  0  0
  1 12  1  0  0  0  0
  2  3  1  0  0  0  0
  2 15  1  0  0  0  0
  2  1  1  0  0  0  0
  3 17  1  0  0  0  0
  4  5  1  0  0  0  0
  4  3  1  0  0  0  0
  4 19  1  0  0  0  0
  5  6  2  0  0  0  0
  6  7  1  0  0  0  0
  6 21  1  0  0  0  0
  7 22  1  0  0  0  0
  8 11  1  0  0  0  0
  8  7  2  0  0  0  0
  9  8  1  0  0  0  0
 10  9  2  0  0  0  0
 10  5  1  0  0  0  0
 11 26  1  0  0  0  0
 13  1  1  0  0  0  0
 14  1  1  0  0  0  0
 16  2  1  0  0  0  0
 18  3  1  0  0  0  0
 20  4  1  0  0  0  0
 23  9  1  0  0  0  0
 24 10  1  0  0  0  0
 25 11  1  0  0  0  0
M  END
