510
 OpenBabel08181812023D

 14 14  0  0  0  0  0  0  0  0999 V2000
   -0.4211    1.1441   -0.1815 C   0  0  0  0  0  0  0  0  0  0  0  0
    0.9542    1.3365   -0.2759 C   0  0  0  0  0  0  0  0  0  0  0  0
    1.8205    0.2538   -0.1248 C   0  0  0  0  0  0  0  0  0  0  0  0
    1.3100   -1.0208    0.1207 C   0  0  0  0  0  0  0  0  0  0  0  0
   -0.0655   -1.2118    0.2149 C   0  0  0  0  0  0  0  0  0  0  0  0
   -0.9589   -0.1336    0.0657 C   0  0  0  0  0  0  0  0  0  0  0  0
   -2.3197   -0.3234    0.1591 N   0  0  0  0  0  0  0  0  0  0  0  0
    3.5465    0.4944   -0.2431 Cl  0  0  0  0  0  0  0  0  0  0  0  0
   -1.0900    1.9979   -0.3013 H   0  0  0  0  0  0  0  0  0  0  0  0
    1.3556    2.3303   -0.4675 H   0  0  0  0  0  0  0  0  0  0  0  0
    1.9887   -1.8641    0.2383 H   0  0  0  0  0  0  0  0  0  0  0  0
   -0.4545   -2.2131    0.4072 H   0  0  0  0  0  0  0  0  0  0  0  0
   -2.7058   -1.2377    0.3358 H   0  0  0  0  0  0  0  0  0  0  0  0
   -2.9602    0.4477    0.0522 H   0  0  0  0  0  0  0  0  0  0  0  0
  1  6  1  0  0  0  0
  2  1  2  0  0  0  0
  2  3  1  0  0  0  0
  3  4  2  0  0  0  0
  4  5  1  0  0  0  0
  4 11  1  0  0  0  0
  5 12  1  0  0  0  0
  6  7  1  0  0  0  0
  6  5  2  0  0  0  0
  7 13  1  0  0  0  0
  8  3  1  0  0  0  0
  9  1  1  0  0  0  0
 10  2  1  0  0  0  0
 14  7  1  0  0  0  0
M  END
