394
 OpenBabel08181812023D

 17 17  0  0  0  0  0  0  0  0999 V2000
    2.2935   -0.0701   -0.5787 C   0  0  0  0  0  0  0  0  0  0  0  0
    1.4105    0.2814    0.6291 C   0  0  0  0  0  0  0  0  0  0  0  0
   -0.0575    0.1066    0.3367 C   0  0  0  0  0  0  0  0  0  0  0  0
   -0.7143   -1.1080    0.5655 C   0  0  0  0  0  0  0  0  0  0  0  0
   -2.0654   -1.2310    0.2404 C   0  0  0  0  0  0  0  0  0  0  0  0
   -2.7996   -0.2428   -0.2906 N   0  0  0  0  0  0  0  0  0  0  0  0
   -2.1686    0.9202   -0.5078 C   0  0  0  0  0  0  0  0  0  0  0  0
   -0.8227    1.1407   -0.2156 C   0  0  0  0  0  0  0  0  0  0  0  0
    2.0546    0.5693   -1.4394 H   0  0  0  0  0  0  0  0  0  0  0  0
    2.1429   -1.1134   -0.8872 H   0  0  0  0  0  0  0  0  0  0  0  0
    3.3562    0.0651   -0.3381 H   0  0  0  0  0  0  0  0  0  0  0  0
    1.6904   -0.3523    1.4836 H   0  0  0  0  0  0  0  0  0  0  0  0
    1.6006    1.3226    0.9284 H   0  0  0  0  0  0  0  0  0  0  0  0
   -0.1794   -1.9543    1.0005 H   0  0  0  0  0  0  0  0  0  0  0  0
   -2.5891   -2.1738    0.4207 H   0  0  0  0  0  0  0  0  0  0  0  0
   -2.7760    1.7226   -0.9352 H   0  0  0  0  0  0  0  0  0  0  0  0
   -0.3758    2.1170   -0.4121 H   0  0  0  0  0  0  0  0  0  0  0  0
  1 11  1  0  0  0  0
  1  2  1  0  0  0  0
  2 13  1  0  0  0  0
  2 12  1  0  0  0  0
  3  4  1  0  0  0  0
  3  2  1  0  0  0  0
  4 14  1  0  0  0  0
  5 15  1  0  0  0  0
  5  4  2  0  0  0  0
  6  5  1  0  0  0  0
  7  6  2  0  0  0  0
  7  8  1  0  0  0  0
  8  3  2  0  0  0  0
  9  1  1  0  0  0  0
 10  1  1  0  0  0  0
 16  7  1  0  0  0  0
 17  8  1  0  0  0  0
M  END
