328
 OpenBabel08181812023D

 27 26  0  0  1  0  0  0  0  0999 V2000
   -1.5272    1.7619    0.4425 C   0  0  0  0  0  0  0  0  0  0  0  0
   -0.9454    0.5285    1.1403 C   0  0  0  0  0  0  0  0  0  0  0  0
   -0.3102   -0.5504    0.2365 C   0  0  0  0  0  0  0  0  0  0  0  0
   -1.2872   -1.1362   -0.8001 C   0  0  0  0  0  0  0  0  0  0  0  0
   -2.5154   -1.8229   -0.1998 C   0  0  0  0  0  0  0  0  0  0  0  0
    1.0217   -0.1484   -0.4438 C   0  0  2  0  0  0  0  0  0  0  0  0
    2.0773    0.3898    0.5191 C   0  0  0  0  0  0  0  0  0  0  0  0
    3.4671    0.5011   -0.1078 C   0  0  0  0  0  0  0  0  0  0  0  0
    0.8646    0.8448   -1.4756 O   0  0  0  0  0  0  0  0  0  0  0  0
   -1.9513    2.4535    1.1836 H   0  0  0  0  0  0  0  0  0  0  0  0
   -2.3375    1.4960   -0.2512 H   0  0  0  0  0  0  0  0  0  0  0  0
   -0.7644    2.2993   -0.1328 H   0  0  0  0  0  0  0  0  0  0  0  0
   -1.7385    0.0474    1.7337 H   0  0  0  0  0  0  0  0  0  0  0  0
   -0.1948    0.8513    1.8769 H   0  0  0  0  0  0  0  0  0  0  0  0
   -0.0304   -1.3856    0.9060 H   0  0  0  0  0  0  0  0  0  0  0  0
   -0.7368   -1.8665   -1.4174 H   0  0  0  0  0  0  0  0  0  0  0  0
   -1.6258   -0.3444   -1.4891 H   0  0  0  0  0  0  0  0  0  0  0  0
   -3.1564   -1.1155    0.3428 H   0  0  0  0  0  0  0  0  0  0  0  0
   -2.2206   -2.6128    0.5066 H   0  0  0  0  0  0  0  0  0  0  0  0
   -3.1300   -2.2887   -0.9819 H   0  0  0  0  0  0  0  0  0  0  0  0
    1.4264   -1.0742   -0.9047 H   0  0  0  0  0  0  0  0  0  0  0  0
    1.7536    1.3782    0.8788 H   0  0  0  0  0  0  0  0  0  0  0  0
    2.1116   -0.2721    1.3986 H   0  0  0  0  0  0  0  0  0  0  0  0
    4.1928    0.9103    0.6077 H   0  0  0  0  0  0  0  0  0  0  0  0
    3.8364   -0.4828   -0.4317 H   0  0  0  0  0  0  0  0  0  0  0  0
    3.4476    1.1584   -0.9858 H   0  0  0  0  0  0  0  0  0  0  0  0
    0.2730    0.4798   -2.1510 H   0  0  0  0  0  0  0  0  0  0  0  0
  1  2  1  0  0  0  0
  1 10  1  0  0  0  0
  2 13  1  0  0  0  0
  2 14  1  0  0  0  0
  3 15  1  0  0  0  0
  3  2  1  0  0  0  0
  4  5  1  0  0  0  0
  4  3  1  0  0  0  0
  5 18  1  0  0  0  0
  5 19  1  0  0  0  0
  6 21  1  6  0  0  0
  6  3  1  0  0  0  0
  6  7  1  0  0  0  0
  7 22  1  0  0  0  0
  7 23  1  0  0  0  0
  8  7  1  0  0  0  0
  8 24  1  0  0  0  0
  9  6  1  0  0  0  0
 11  1  1  0  0  0  0
 12  1  1  0  0  0  0
 16  4  1  0  0  0  0
 17  4  1  0  0  0  0
 20  5  1  0  0  0  0
 25  8  1  0  0  0  0
 26  8  1  0  0  0  0
 27  9  1  0  0  0  0
M  END
