064
 OpenBabel08181812023D

 22 21  0  0  0  0  0  0  0  0999 V2000
   -3.1358   -0.0708   -1.3088 C   0  0  0  0  0  0  0  0  0  0  0  0
   -2.4147   -0.9728   -0.3064 C   0  0  0  0  0  0  0  0  0  0  0  0
   -0.8978   -0.7833   -0.3116 C   0  0  0  0  0  0  0  0  0  0  0  0
   -0.4218    0.5219    0.3196 C   0  0  0  0  0  0  0  0  0  0  0  0
   -1.1429    1.1780    1.0538 O   0  0  0  0  0  0  0  0  0  0  0  0
    1.0008    0.9643    0.0112 C   0  0  0  0  0  0  0  0  0  0  0  0
    2.0856   -0.0725    0.3476 C   0  0  0  0  0  0  0  0  0  0  0  0
    3.4944    0.4583    0.0827 C   0  0  0  0  0  0  0  0  0  0  0  0
   -2.7991   -0.2698   -2.3371 H   0  0  0  0  0  0  0  0  0  0  0  0
   -2.9530    0.9895   -1.0898 H   0  0  0  0  0  0  0  0  0  0  0  0
   -4.2216   -0.2324   -1.2785 H   0  0  0  0  0  0  0  0  0  0  0  0
   -2.6405   -2.0269   -0.5265 H   0  0  0  0  0  0  0  0  0  0  0  0
   -2.7887   -0.7704    0.7072 H   0  0  0  0  0  0  0  0  0  0  0  0
   -0.4079   -1.5922    0.2592 H   0  0  0  0  0  0  0  0  0  0  0  0
   -0.4854   -0.8634   -1.3316 H   0  0  0  0  0  0  0  0  0  0  0  0
    1.0531    1.1993   -1.0665 H   0  0  0  0  0  0  0  0  0  0  0  0
    1.1791    1.8984    0.5613 H   0  0  0  0  0  0  0  0  0  0  0  0
    1.9923   -0.3593    1.4068 H   0  0  0  0  0  0  0  0  0  0  0  0
    1.9226   -0.9897   -0.2379 H   0  0  0  0  0  0  0  0  0  0  0  0
    4.2569   -0.2911    0.3337 H   0  0  0  0  0  0  0  0  0  0  0  0
    3.6988    1.3566    0.6816 H   0  0  0  0  0  0  0  0  0  0  0  0
    3.6253    0.7281   -0.9750 H   0  0  0  0  0  0  0  0  0  0  0  0
  1 11  1  0  0  0  0
  1 10  1  0  0  0  0
  1  2  1  0  0  0  0
  2 13  1  0  0  0  0
  3  2  1  0  0  0  0
  3 14  1  0  0  0  0
  3  4  1  0  0  0  0
  4  5  2  0  0  0  0
  6  4  1  0  0  0  0
  6  7  1  0  0  0  0
  6 17  1  0  0  0  0
  7 18  1  0  0  0  0
  8 20  1  0  0  0  0
  8  7  1  0  0  0  0
  8 21  1  0  0  0  0
  9  1  1  0  0  0  0
 12  2  1  0  0  0  0
 15  3  1  0  0  0  0
 16  6  1  0  0  0  0
 19  7  1  0  0  0  0
 22  8  1  0  0  0  0
M  END
