508
 OpenBabel08181812023D

 23 23  0  0  0  0  0  0  0  0999 V2000
   -2.4059   -0.4996   -1.2724 C   0  0  0  0  0  0  0  0  0  0  0  0
   -1.7752    0.4311   -0.2240 C   0  0  0  0  0  0  0  0  0  0  0  0
   -2.4719    0.2690    1.1368 C   0  0  0  0  0  0  0  0  0  0  0  0
   -0.2716    0.2426   -0.1225 C   0  0  0  0  0  0  0  0  0  0  0  0
    0.2997   -0.9736    0.2814 C   0  0  0  0  0  0  0  0  0  0  0  0
    1.6777   -1.1432    0.3735 C   0  0  0  0  0  0  0  0  0  0  0  0
    2.5556   -0.0876    0.0608 C   0  0  0  0  0  0  0  0  0  0  0  0
    1.9933    1.1354   -0.3451 C   0  0  0  0  0  0  0  0  0  0  0  0
    0.6108    1.2853   -0.4311 C   0  0  0  0  0  0  0  0  0  0  0  0
    3.9225   -0.2503    0.1508 N   0  0  0  0  0  0  0  0  0  0  0  0
   -2.2846   -1.5548   -0.9875 H   0  0  0  0  0  0  0  0  0  0  0  0
   -1.9394   -0.3642   -2.2571 H   0  0  0  0  0  0  0  0  0  0  0  0
   -3.4835   -0.3039   -1.3714 H   0  0  0  0  0  0  0  0  0  0  0  0
   -1.9408    1.4685   -0.5595 H   0  0  0  0  0  0  0  0  0  0  0  0
   -2.0529    0.9569    1.8831 H   0  0  0  0  0  0  0  0  0  0  0  0
   -3.5499    0.4687    1.0505 H   0  0  0  0  0  0  0  0  0  0  0  0
   -2.3532   -0.7543    1.5217 H   0  0  0  0  0  0  0  0  0  0  0  0
   -0.3438   -1.8187    0.5334 H   0  0  0  0  0  0  0  0  0  0  0  0
    2.0864   -2.1045    0.6916 H   0  0  0  0  0  0  0  0  0  0  0  0
    2.6476    1.9732   -0.5945 H   0  0  0  0  0  0  0  0  0  0  0  0
    0.2053    2.2483   -0.7496 H   0  0  0  0  0  0  0  0  0  0  0  0
    4.3227   -1.1286    0.4411 H   0  0  0  0  0  0  0  0  0  0  0  0
    4.5513    0.5046   -0.0739 H   0  0  0  0  0  0  0  0  0  0  0  0
  1 11  1  0  0  0  0
  1  2  1  0  0  0  0
  2  4  1  0  0  0  0
  2  3  1  0  0  0  0
  3 17  1  0  0  0  0
  3 15  1  0  0  0  0
  4  5  2  0  0  0  0
  5  6  1  0  0  0  0
  5 18  1  0  0  0  0
  6 19  1  0  0  0  0
  7 10  1  0  0  0  0
  7  6  2  0  0  0  0
  8  7  1  0  0  0  0
  9  8  2  0  0  0  0
  9  4  1  0  0  0  0
 10 22  1  0  0  0  0
 12  1  1  0  0  0  0
 13  1  1  0  0  0  0
 14  2  1  0  0  0  0
 16  3  1  0  0  0  0
 20  8  1  0  0  0  0
 21  9  1  0  0  0  0
 23 10  1  0  0  0  0
M  END
