513
 OpenBabel08181812023D

 16 16  0  0  0  0  0  0  0  0999 V2000
   -0.6521   -0.8967   -0.8696 C   0  0  0  0  0  0  0  0  0  0  0  0
    0.7273   -0.9112   -0.7541 C   0  0  0  0  0  0  0  0  0  0  0  0
    1.3584   -0.0149    0.1132 C   0  0  0  0  0  0  0  0  0  0  0  0
    0.6119    0.8965    0.8657 C   0  0  0  0  0  0  0  0  0  0  0  0
   -0.7676    0.9120    0.7512 C   0  0  0  0  0  0  0  0  0  0  0  0
   -1.4283    0.0155   -0.1191 C   0  0  0  0  0  0  0  0  0  0  0  0
   -2.7906    0.0305   -0.2327 N   0  0  0  0  0  0  0  0  0  0  0  0
    2.8135   -0.0305    0.2347 N   0  0  0  0  0  0  0  0  0  0  0  0
    3.4422   -0.8510   -0.4470 O   0  0  0  0  0  0  0  0  0  0  0  0
    3.3381    0.7774    1.0124 O   0  0  0  0  0  0  0  0  0  0  0  0
   -1.1473   -1.5949   -1.5456 H   0  0  0  0  0  0  0  0  0  0  0  0
    1.3350   -1.6086   -1.3265 H   0  0  0  0  0  0  0  0  0  0  0  0
    1.1313    1.5817    1.5321 H   0  0  0  0  0  0  0  0  0  0  0  0
   -1.3527    1.6221    1.3371 H   0  0  0  0  0  0  0  0  0  0  0  0
   -3.2686   -0.6070   -0.8520 H   0  0  0  0  0  0  0  0  0  0  0  0
   -3.3506    0.6790    0.3003 H   0  0  0  0  0  0  0  0  0  0  0  0
  1  2  2  0  0  0  0
  1  6  1  0  0  0  0
  2  3  1  0  0  0  0
  3  8  1  0  0  0  0
  3  4  2  0  0  0  0
  4 13  1  0  0  0  0
  5  4  1  0  0  0  0
  5 14  1  0  0  0  0
  6  5  2  0  0  0  0
  7  6  1  0  0  0  0
  7 16  1  0  0  0  0
  8 10  2  0  0  0  0
  9  8  2  0  0  0  0
 11  1  1  0  0  0  0
 12  2  1  0  0  0  0
 15  7  1  0  0  0  0
M  END
