243
 OpenBabel08181812023D

 27 26  0  0  1  0  0  0  0  0999 V2000
    3.9663   -0.7710    0.6242 C   0  0  0  0  0  0  0  0  0  0  0  0
    2.4432   -0.6514    0.5625 C   0  0  0  0  0  0  0  0  0  0  0  0
    1.9371   -0.2845   -0.8351 C   0  0  0  0  0  0  0  0  0  0  0  0
    0.4109   -0.2347   -0.9775 C   0  0  0  0  0  0  0  0  0  0  0  0
   -0.2826    0.8593   -0.1678 C   0  0  2  0  0  0  0  0  0  0  0  0
   -1.8038    0.8799   -0.3622 C   0  0  0  0  0  0  0  0  0  0  0  0
   -2.5508   -0.3277    0.2108 C   0  0  0  0  0  0  0  0  0  0  0  0
   -4.0694   -0.1919    0.0938 C   0  0  0  0  0  0  0  0  0  0  0  0
    0.3003    2.1085   -0.5842 O   0  0  0  0  0  0  0  0  0  0  0  0
    4.3131   -1.0319    1.6333 H   0  0  0  0  0  0  0  0  0  0  0  0
    4.3316   -1.5462   -0.0651 H   0  0  0  0  0  0  0  0  0  0  0  0
    4.4486    0.1754    0.3400 H   0  0  0  0  0  0  0  0  0  0  0  0
    2.1104    0.1050    1.2902 H   0  0  0  0  0  0  0  0  0  0  0  0
    1.9851   -1.6037    0.8793 H   0  0  0  0  0  0  0  0  0  0  0  0
    2.3264   -1.0228   -1.5556 H   0  0  0  0  0  0  0  0  0  0  0  0
    2.3579    0.6878   -1.1321 H   0  0  0  0  0  0  0  0  0  0  0  0
   -0.0152   -1.2067   -0.6832 H   0  0  0  0  0  0  0  0  0  0  0  0
    0.1491   -0.0803   -2.0371 H   0  0  0  0  0  0  0  0  0  0  0  0
   -0.0738    0.7022    0.9093 H   0  0  0  0  0  0  0  0  0  0  0  0
   -2.0196    0.9855   -1.4383 H   0  0  0  0  0  0  0  0  0  0  0  0
   -2.1956    1.7930    0.1221 H   0  0  0  0  0  0  0  0  0  0  0  0
   -2.2281   -1.2450   -0.3046 H   0  0  0  0  0  0  0  0  0  0  0  0
   -2.2728   -0.4586    1.2697 H   0  0  0  0  0  0  0  0  0  0  0  0
   -4.3787   -0.0866   -0.9559 H   0  0  0  0  0  0  0  0  0  0  0  0
   -4.4325    0.6939    0.6348 H   0  0  0  0  0  0  0  0  0  0  0  0
   -4.5855   -1.0691    0.5065 H   0  0  0  0  0  0  0  0  0  0  0  0
   -0.1721    2.8214   -0.1272 H   0  0  0  0  0  0  0  0  0  0  0  0
  1 10  1  0  0  0  0
  2  1  1  0  0  0  0
  2 14  1  0  0  0  0
  2 13  1  0  0  0  0
  3  2  1  0  0  0  0
  4  3  1  0  0  0  0
  4 17  1  0  0  0  0
  4  5  1  0  0  0  0
  5 19  1  1  0  0  0
  6  5  1  0  0  0  0
  6 21  1  0  0  0  0
  6  7  1  0  0  0  0
  7 23  1  0  0  0  0
  8  7  1  0  0  0  0
  8 26  1  0  0  0  0
  8 25  1  0  0  0  0
  9  5  1  0  0  0  0
  9 27  1  0  0  0  0
 11  1  1  0  0  0  0
 12  1  1  0  0  0  0
 15  3  1  0  0  0  0
 16  3  1  0  0  0  0
 18  4  1  0  0  0  0
 20  6  1  0  0  0  0
 22  7  1  0  0  0  0
 24  8  1  0  0  0  0
M  END
