399
 OpenBabel08181812023D

 23 23  0  0  0  0  0  0  0  0999 V2000
   -1.5201   -0.2834   -1.1477 C   0  0  0  0  0  0  0  0  0  0  0  0
   -0.9480    0.1839    0.2084 C   0  0  0  0  0  0  0  0  0  0  0  0
   -1.2912    1.6692    0.3964 C   0  0  0  0  0  0  0  0  0  0  0  0
   -1.6127   -0.6204    1.3467 C   0  0  0  0  0  0  0  0  0  0  0  0
    0.5630   -0.0685    0.2302 C   0  0  0  0  0  0  0  0  0  0  0  0
    1.0766   -1.3658    0.0743 C   0  0  0  0  0  0  0  0  0  0  0  0
    2.4526   -1.5788    0.0963 C   0  0  0  0  0  0  0  0  0  0  0  0
    3.3606   -0.6041    0.2612 N   0  0  0  0  0  0  0  0  0  0  0  0
    2.8731    0.6330    0.4101 C   0  0  0  0  0  0  0  0  0  0  0  0
    1.5112    0.9463    0.4020 C   0  0  0  0  0  0  0  0  0  0  0  0
   -1.0681    0.2742   -1.9793 H   0  0  0  0  0  0  0  0  0  0  0  0
   -1.3383   -1.3522   -1.3196 H   0  0  0  0  0  0  0  0  0  0  0  0
   -2.6066   -0.1180   -1.1748 H   0  0  0  0  0  0  0  0  0  0  0  0
   -0.9310    2.0531    1.3608 H   0  0  0  0  0  0  0  0  0  0  0  0
   -2.3815    1.8003    0.3737 H   0  0  0  0  0  0  0  0  0  0  0  0
   -0.8657    2.2915   -0.4030 H   0  0  0  0  0  0  0  0  0  0  0  0
   -2.6999   -0.4573    1.3374 H   0  0  0  0  0  0  0  0  0  0  0  0
   -1.2279   -0.3076    2.3270 H   0  0  0  0  0  0  0  0  0  0  0  0
   -1.4334   -1.6983    1.2419 H   0  0  0  0  0  0  0  0  0  0  0  0
    0.4133   -2.2201   -0.0654 H   0  0  0  0  0  0  0  0  0  0  0  0
    2.8515   -2.5894   -0.0253 H   0  0  0  0  0  0  0  0  0  0  0  0
    3.6121    1.4278    0.5445 H   0  0  0  0  0  0  0  0  0  0  0  0
    1.2105    1.9846    0.5310 H   0  0  0  0  0  0  0  0  0  0  0  0
  1  2  1  0  0  0  0
  2  5  1  0  0  0  0
  2  3  1  0  0  0  0
  2  4  1  0  0  0  0
  3 14  1  0  0  0  0
  4 18  1  0  0  0  0
  5 10  2  0  0  0  0
  6  7  2  0  0  0  0
  6  5  1  0  0  0  0
  7  8  1  0  0  0  0
  8  9  2  0  0  0  0
  9 22  1  0  0  0  0
 10  9  1  0  0  0  0
 10 23  1  0  0  0  0
 11  1  1  0  0  0  0
 12  1  1  0  0  0  0
 13  1  1  0  0  0  0
 15  3  1  0  0  0  0
 16  3  1  0  0  0  0
 17  4  1  0  0  0  0
 19  4  1  0  0  0  0
 20  6  1  0  0  0  0
 21  7  1  0  0  0  0
M  END
