308
 OpenBabel08181812023D

 14 14  0  0  0  0  0  0  0  0999 V2000
   -2.2067    0.8301    0.3688 C   0  0  0  0  0  0  0  0  0  0  0  0
   -0.9235    0.1071    0.2047 C   0  0  0  0  0  0  0  0  0  0  0  0
   -0.6116   -1.2121   -0.0393 C   0  0  0  0  0  0  0  0  0  0  0  0
    0.8028   -1.2875   -0.0915 C   0  0  0  0  0  0  0  0  0  0  0  0
    1.2759   -0.0096    0.1235 C   0  0  0  0  0  0  0  0  0  0  0  0
    0.2148    0.8464    0.3054 O   0  0  0  0  0  0  0  0  0  0  0  0
    2.6318    0.4972    0.1766 C   0  0  0  0  0  0  0  0  0  0  0  0
    2.9596    1.6579    0.3752 O   0  0  0  0  0  0  0  0  0  0  0  0
   -3.0459    0.1340    0.2673 H   0  0  0  0  0  0  0  0  0  0  0  0
   -2.2667    1.3099    1.3560 H   0  0  0  0  0  0  0  0  0  0  0  0
   -2.3142    1.6213   -0.3867 H   0  0  0  0  0  0  0  0  0  0  0  0
   -1.3233   -2.0206   -0.1642 H   0  0  0  0  0  0  0  0  0  0  0  0
    1.4152   -2.1662   -0.2651 H   0  0  0  0  0  0  0  0  0  0  0  0
    3.3916   -0.3079    0.0126 H   0  0  0  0  0  0  0  0  0  0  0  0
  1 10  1  0  0  0  0
  2  6  1  0  0  0  0
  2  1  1  0  0  0  0
  3  2  2  0  0  0  0
  4  3  1  0  0  0  0
  4  5  2  0  0  0  0
  5  7  1  0  0  0  0
  5  6  1  0  0  0  0
  7  8  2  0  0  0  0
  9  1  1  0  0  0  0
 11  1  1  0  0  0  0
 12  3  1  0  0  0  0
 13  4  1  0  0  0  0
 14  7  1  0  0  0  0
M  END
