622
 OpenBabel08181812023D

 22 21  0  0  0  0  0  0  0  0999 V2000
   -1.9694    1.0641    1.0133 C   0  0  0  0  0  0  0  0  0  0  0  0
   -1.2961   -0.2833    0.7330 C   0  0  0  0  0  0  0  0  0  0  0  0
   -2.3231   -1.3077    0.2385 C   0  0  0  0  0  0  0  0  0  0  0  0
   -0.1416   -0.1642   -0.2774 C   0  0  0  0  0  0  0  0  0  0  0  0
    1.0378    0.7055    0.1990 C   0  0  0  0  0  0  0  0  0  0  0  0
    2.1509    0.7099   -0.8382 C   0  0  0  0  0  0  0  0  0  0  0  0
    2.1734    1.5299   -1.7409 O   0  0  0  0  0  0  0  0  0  0  0  0
    3.2112   -0.3653   -0.7090 C   0  0  0  0  0  0  0  0  0  0  0  0
   -2.7985    0.9460    1.7247 H   0  0  0  0  0  0  0  0  0  0  0  0
   -2.3831    1.4918    0.0872 H   0  0  0  0  0  0  0  0  0  0  0  0
   -1.2726    1.7981    1.4387 H   0  0  0  0  0  0  0  0  0  0  0  0
   -0.8716   -0.6579    1.6815 H   0  0  0  0  0  0  0  0  0  0  0  0
   -1.8620   -2.2907    0.0681 H   0  0  0  0  0  0  0  0  0  0  0  0
   -3.1365   -1.4379    0.9656 H   0  0  0  0  0  0  0  0  0  0  0  0
   -2.7745   -0.9808   -0.7104 H   0  0  0  0  0  0  0  0  0  0  0  0
   -0.5273    0.2501   -1.2232 H   0  0  0  0  0  0  0  0  0  0  0  0
    0.2254   -1.1777   -0.5085 H   0  0  0  0  0  0  0  0  0  0  0  0
    0.7113    1.7437    0.3390 H   0  0  0  0  0  0  0  0  0  0  0  0
    1.4114    0.3189    1.1604 H   0  0  0  0  0  0  0  0  0  0  0  0
    2.7565   -1.3530   -0.5477 H   0  0  0  0  0  0  0  0  0  0  0  0
    3.8497   -0.3827   -1.5974 H   0  0  0  0  0  0  0  0  0  0  0  0
    3.8288   -0.1567    0.1780 H   0  0  0  0  0  0  0  0  0  0  0  0
  1 11  1  0  0  0  0
  1  9  1  0  0  0  0
  2  1  1  0  0  0  0
  2 12  1  0  0  0  0
  3  2  1  0  0  0  0
  3 14  1  0  0  0  0
  4  5  1  0  0  0  0
  4  2  1  0  0  0  0
  5 18  1  0  0  0  0
  5 19  1  0  0  0  0
  6  8  1  0  0  0  0
  6  5  1  0  0  0  0
  7  6  2  0  0  0  0
  8 20  1  0  0  0  0
  8 22  1  0  0  0  0
 10  1  1  0  0  0  0
 13  3  1  0  0  0  0
 15  3  1  0  0  0  0
 16  4  1  0  0  0  0
 17  4  1  0  0  0  0
 21  8  1  0  0  0  0
M  END
