302
 OpenBabel08181812023D

 24 23  0  0  1  0  0  0  0  0999 V2000
    2.1580   -0.6993    1.3634 C   0  0  0  0  0  0  0  0  0  0  0  0
    1.7989   -0.4335   -0.1030 C   0  0  0  0  0  0  0  0  0  0  0  0
    2.2512    0.9656   -0.5373 C   0  0  0  0  0  0  0  0  0  0  0  0
    0.3080   -0.6931   -0.4079 C   0  0  0  0  0  0  0  0  0  0  0  0
   -0.6915    0.2188    0.3135 C   0  0  0  0  0  0  0  0  0  0  0  0
   -2.1622   -0.1497    0.0811 C   0  0  2  0  0  0  0  0  0  0  0  0
   -2.6181    0.0254   -1.3650 C   0  0  0  0  0  0  0  0  0  0  0  0
   -3.0172    0.5855    0.9760 O   0  0  0  0  0  0  0  0  0  0  0  0
    1.6770    0.0241    2.0371 H   0  0  0  0  0  0  0  0  0  0  0  0
    1.8486   -1.7066    1.6768 H   0  0  0  0  0  0  0  0  0  0  0  0
    3.2428   -0.6181    1.5201 H   0  0  0  0  0  0  0  0  0  0  0  0
    2.3614   -1.1617   -0.7126 H   0  0  0  0  0  0  0  0  0  0  0  0
    1.7771    1.7501    0.0699 H   0  0  0  0  0  0  0  0  0  0  0  0
    2.0031    1.1599   -1.5908 H   0  0  0  0  0  0  0  0  0  0  0  0
    3.3384    1.0781   -0.4232 H   0  0  0  0  0  0  0  0  0  0  0  0
    0.1631   -0.6084   -1.4967 H   0  0  0  0  0  0  0  0  0  0  0  0
    0.0793   -1.7412   -0.1489 H   0  0  0  0  0  0  0  0  0  0  0  0
   -0.5437    1.2674    0.0013 H   0  0  0  0  0  0  0  0  0  0  0  0
   -0.5205    0.1846    1.3995 H   0  0  0  0  0  0  0  0  0  0  0  0
   -2.3125   -1.1998    0.3806 H   0  0  0  0  0  0  0  0  0  0  0  0
   -2.0566   -0.6238   -2.0505 H   0  0  0  0  0  0  0  0  0  0  0  0
   -3.6839   -0.2176   -1.4579 H   0  0  0  0  0  0  0  0  0  0  0  0
   -2.4707    1.0667   -1.6931 H   0  0  0  0  0  0  0  0  0  0  0  0
   -2.9300    1.5265    0.7520 H   0  0  0  0  0  0  0  0  0  0  0  0
  1 11  1  0  0  0  0
  1 10  1  0  0  0  0
  1  9  1  0  0  0  0
  2  1  1  0  0  0  0
  3 15  1  0  0  0  0
  3  2  1  0  0  0  0
  3 13  1  0  0  0  0
  4 17  1  0  0  0  0
  4  2  1  0  0  0  0
  4  5  1  0  0  0  0
  5 19  1  0  0  0  0
  6  5  1  0  0  0  0
  6 20  1  1  0  0  0
  6  8  1  0  0  0  0
  7  6  1  0  0  0  0
 12  2  1  0  0  0  0
 14  3  1  0  0  0  0
 16  4  1  0  0  0  0
 18  5  1  0  0  0  0
 21  7  1  0  0  0  0
 22  7  1  0  0  0  0
 23  7  1  0  0  0  0
 24  8  1  0  0  0  0
M  END
