358
 OpenBabel08181812023D

 28 27  0  0  0  0  0  0  0  0999 V2000
   -3.9315    0.5022    0.7053 C   0  0  0  0  0  0  0  0  0  0  0  0
   -2.7663    1.1880   -0.0094 C   0  0  0  0  0  0  0  0  0  0  0  0
   -2.1250    0.3475   -1.1215 C   0  0  0  0  0  0  0  0  0  0  0  0
   -1.4747   -0.9690   -0.6441 C   0  0  0  0  0  0  0  0  0  0  0  0
   -0.3437   -0.7442    0.3445 C   0  0  0  0  0  0  0  0  0  0  0  0
   -0.4447   -1.0656    1.5187 O   0  0  0  0  0  0  0  0  0  0  0  0
    0.9393   -0.1083   -0.1787 C   0  0  0  0  0  0  0  0  0  0  0  0
    2.1315   -1.0726   -0.0412 C   0  0  0  0  0  0  0  0  0  0  0  0
    3.4601   -0.4878   -0.5344 C   0  0  0  0  0  0  0  0  0  0  0  0
    3.9671    0.7020    0.2815 C   0  0  0  0  0  0  0  0  0  0  0  0
   -3.6043   -0.3930    1.2499 H   0  0  0  0  0  0  0  0  0  0  0  0
   -4.7111    0.1980   -0.0087 H   0  0  0  0  0  0  0  0  0  0  0  0
   -4.3960    1.1768    1.4364 H   0  0  0  0  0  0  0  0  0  0  0  0
   -3.1164    2.1319   -0.4547 H   0  0  0  0  0  0  0  0  0  0  0  0
   -1.9998    1.4687    0.7305 H   0  0  0  0  0  0  0  0  0  0  0  0
   -2.8896    0.0936   -1.8729 H   0  0  0  0  0  0  0  0  0  0  0  0
   -1.3726    0.9555   -1.6474 H   0  0  0  0  0  0  0  0  0  0  0  0
   -2.2165   -1.6210   -0.1664 H   0  0  0  0  0  0  0  0  0  0  0  0
   -1.0690   -1.4969   -1.5227 H   0  0  0  0  0  0  0  0  0  0  0  0
    0.8259    0.2062   -1.2269 H   0  0  0  0  0  0  0  0  0  0  0  0
    1.1229    0.7940    0.4238 H   0  0  0  0  0  0  0  0  0  0  0  0
    1.9137   -1.9936   -0.6049 H   0  0  0  0  0  0  0  0  0  0  0  0
    2.2164   -1.3674    1.0154 H   0  0  0  0  0  0  0  0  0  0  0  0
    4.2169   -1.2873   -0.5136 H   0  0  0  0  0  0  0  0  0  0  0  0
    3.3593   -0.1956   -1.5928 H   0  0  0  0  0  0  0  0  0  0  0  0
    4.0856    0.4327    1.3409 H   0  0  0  0  0  0  0  0  0  0  0  0
    3.2801    1.5579    0.2330 H   0  0  0  0  0  0  0  0  0  0  0  0
    4.9424    1.0474   -0.0861 H   0  0  0  0  0  0  0  0  0  0  0  0
  1 11  1  0  0  0  0
  1 13  1  0  0  0  0
  2  1  1  0  0  0  0
  2 15  1  0  0  0  0
  3  4  1  0  0  0  0
  3  2  1  0  0  0  0
  4 18  1  0  0  0  0
  4  5  1  0  0  0  0
  5  6  2  0  0  0  0
  7  8  1  0  0  0  0
  7  5  1  0  0  0  0
  7 21  1  0  0  0  0
  8 23  1  0  0  0  0
  9 24  1  0  0  0  0
  9  8  1  0  0  0  0
  9 10  1  0  0  0  0
 10 26  1  0  0  0  0
 12  1  1  0  0  0  0
 14  2  1  0  0  0  0
 16  3  1  0  0  0  0
 17  3  1  0  0  0  0
 19  4  1  0  0  0  0
 20  7  1  0  0  0  0
 22  8  1  0  0  0  0
 25  9  1  0  0  0  0
 27 10  1  0  0  0  0
 28 10  1  0  0  0  0
M  END
