624
 OpenBabel08181812023D

 28 27  0  0  0  0  0  0  0  0999 V2000
   -3.6295    0.2086   -0.7666 C   0  0  0  0  0  0  0  0  0  0  0  0
   -2.4484    0.0095    0.1884 C   0  0  0  0  0  0  0  0  0  0  0  0
   -2.0624   -1.4714    0.2643 C   0  0  0  0  0  0  0  0  0  0  0  0
   -1.2730    0.9190   -0.2149 C   0  0  0  0  0  0  0  0  0  0  0  0
   -0.0641    0.8977    0.7443 C   0  0  0  0  0  0  0  0  0  0  0  0
    1.1262    0.0370    0.2912 C   0  0  0  0  0  0  0  0  0  0  0  0
    1.8945    0.6549   -0.8915 C   0  0  0  0  0  0  0  0  0  0  0  0
    3.0419   -0.2064   -1.3967 C   0  0  0  0  0  0  0  0  0  0  0  0
    3.0652   -0.6317   -2.5399 O   0  0  0  0  0  0  0  0  0  0  0  0
    4.1524   -0.5292   -0.4136 C   0  0  0  0  0  0  0  0  0  0  0  0
   -4.4964   -0.3936   -0.4608 H   0  0  0  0  0  0  0  0  0  0  0  0
   -3.3592   -0.0945   -1.7895 H   0  0  0  0  0  0  0  0  0  0  0  0
   -3.9448    1.2608   -0.8033 H   0  0  0  0  0  0  0  0  0  0  0  0
   -2.7715    0.3249    1.1971 H   0  0  0  0  0  0  0  0  0  0  0  0
   -1.7126   -1.8355   -0.7138 H   0  0  0  0  0  0  0  0  0  0  0  0
   -1.2655   -1.6554    0.9973 H   0  0  0  0  0  0  0  0  0  0  0  0
   -2.9257   -2.0854    0.5574 H   0  0  0  0  0  0  0  0  0  0  0  0
   -1.6585    1.9471   -0.2936 H   0  0  0  0  0  0  0  0  0  0  0  0
   -0.9518    0.6466   -1.2350 H   0  0  0  0  0  0  0  0  0  0  0  0
   -0.3992    0.5481    1.7343 H   0  0  0  0  0  0  0  0  0  0  0  0
    0.3009    1.9248    0.9031 H   0  0  0  0  0  0  0  0  0  0  0  0
    0.7770   -0.9680    0.0086 H   0  0  0  0  0  0  0  0  0  0  0  0
    1.8130   -0.0979    1.1405 H   0  0  0  0  0  0  0  0  0  0  0  0
    2.3085    1.6272   -0.5723 H   0  0  0  0  0  0  0  0  0  0  0  0
    1.2267    0.8380   -1.7431 H   0  0  0  0  0  0  0  0  0  0  0  0
    3.8072   -1.3144    0.2766 H   0  0  0  0  0  0  0  0  0  0  0  0
    5.0294   -0.9025   -0.9520 H   0  0  0  0  0  0  0  0  0  0  0  0
    4.4198    0.3414    0.2013 H   0  0  0  0  0  0  0  0  0  0  0  0
  1 11  1  0  0  0  0
  1  2  1  0  0  0  0
  2  3  1  0  0  0  0
  2 14  1  0  0  0  0
  3 17  1  0  0  0  0
  3 16  1  0  0  0  0
  4  2  1  0  0  0  0
  4  5  1  0  0  0  0
  5 21  1  0  0  0  0
  5 20  1  0  0  0  0
  6  5  1  0  0  0  0
  6 23  1  0  0  0  0
  7 24  1  0  0  0  0
  7  6  1  0  0  0  0
  8  7  1  0  0  0  0
  8 10  1  0  0  0  0
  9  8  2  0  0  0  0
 10 28  1  0  0  0  0
 10 26  1  0  0  0  0
 12  1  1  0  0  0  0
 13  1  1  0  0  0  0
 15  3  1  0  0  0  0
 18  4  1  0  0  0  0
 19  4  1  0  0  0  0
 22  6  1  0  0  0  0
 25  7  1  0  0  0  0
 27 10  1  0  0  0  0
M  END
