059
 OpenBabel08181812023D

 10  9  0  0  0  0  0  0  0  0999 V2000
    1.2950   -0.1425   -0.1661 C   0  0  0  0  0  0  0  0  0  0  0  0
    0.0103   -0.0398    0.6273 C   0  0  0  0  0  0  0  0  0  0  0  0
   -0.0064   -0.1125    1.8434 O   0  0  0  0  0  0  0  0  0  0  0  0
   -1.2751    0.1603   -0.1616 C   0  0  0  0  0  0  0  0  0  0  0  0
    2.1494   -0.2844    0.5025 H   0  0  0  0  0  0  0  0  0  0  0  0
    1.2309   -0.9799   -0.8775 H   0  0  0  0  0  0  0  0  0  0  0  0
    1.4369    0.7664   -0.7703 H   0  0  0  0  0  0  0  0  0  0  0  0
   -1.9648   -0.6624    0.0700 H   0  0  0  0  0  0  0  0  0  0  0  0
   -1.7585    1.0865    0.1774 H   0  0  0  0  0  0  0  0  0  0  0  0
   -1.1176    0.2083   -1.2452 H   0  0  0  0  0  0  0  0  0  0  0  0
  1  5  1  0  0  0  0
  1  2  1  0  0  0  0
  2  3  2  0  0  0  0
  4  8  1  0  0  0  0
  4  9  1  0  0  0  0
  4  2  1  0  0  0  0
  6  1  1  0  0  0  0
  7  1  1  0  0  0  0
 10  4  1  0  0  0  0
M  END
