072
 OpenBabel08181812023D

  6  5  0  0  0  0  0  0  0  0999 V2000
   -0.4874   -0.0149   -0.0124 C   0  0  0  0  0  0  0  0  0  0  0  0
    0.9648    0.0295    0.0245 C   0  0  0  0  0  0  0  0  0  0  0  0
    2.1253    0.0650    0.0539 N   0  0  0  0  0  0  0  0  0  0  0  0
   -0.8268   -0.7939   -0.7067 H   0  0  0  0  0  0  0  0  0  0  0  0
   -0.8867   -0.2361    0.9855 H   0  0  0  0  0  0  0  0  0  0  0  0
   -0.8892    0.9506   -0.3449 H   0  0  0  0  0  0  0  0  0  0  0  0
  1  2  1  0  0  0  0
  1  5  1  0  0  0  0
  2  3  3  0  0  0  0
  4  1  1  0  0  0  0
  6  1  1  0  0  0  0
M  END
