263
 OpenBabel08181812023D

 17 17  0  0  0  0  0  0  0  0999 V2000
    2.7056   -0.3242    0.0921 C   0  0  0  0  0  0  0  0  0  0  0  0
    1.6393    0.7542    0.0837 C   0  0  0  0  0  0  0  0  0  0  0  0
    1.9482    1.9376    0.1424 O   0  0  0  0  0  0  0  0  0  0  0  0
    0.1991    0.3408    0.0006 C   0  0  0  0  0  0  0  0  0  0  0  0
   -0.7841    1.3436   -0.0063 C   0  0  0  0  0  0  0  0  0  0  0  0
   -2.1324    1.0100   -0.0847 C   0  0  0  0  0  0  0  0  0  0  0  0
   -2.5186   -0.3324   -0.1572 C   0  0  0  0  0  0  0  0  0  0  0  0
   -1.5503   -1.3381   -0.1505 C   0  0  0  0  0  0  0  0  0  0  0  0
   -0.1983   -1.0037   -0.0720 C   0  0  0  0  0  0  0  0  0  0  0  0
    2.6546   -0.9353   -0.8205 H   0  0  0  0  0  0  0  0  0  0  0  0
    3.6885    0.1514    0.1563 H   0  0  0  0  0  0  0  0  0  0  0  0
    2.5714   -1.0050    0.9449 H   0  0  0  0  0  0  0  0  0  0  0  0
   -0.4581    2.3818    0.0503 H   0  0  0  0  0  0  0  0  0  0  0  0
   -2.8886    1.7953   -0.0905 H   0  0  0  0  0  0  0  0  0  0  0  0
   -3.5753   -0.5938   -0.2192 H   0  0  0  0  0  0  0  0  0  0  0  0
   -1.8491   -2.3849   -0.2068 H   0  0  0  0  0  0  0  0  0  0  0  0
    0.5480   -1.7974   -0.0680 H   0  0  0  0  0  0  0  0  0  0  0  0
  1 11  1  0  0  0  0
  1 12  1  0  0  0  0
  2  1  1  0  0  0  0
  2  3  2  0  0  0  0
  4  2  1  0  0  0  0
  5  4  1  0  0  0  0
  5 13  1  0  0  0  0
  6  5  2  0  0  0  0
  7  8  2  0  0  0  0
  7  6  1  0  0  0  0
  8  9  1  0  0  0  0
  9 17  1  0  0  0  0
  9  4  2  0  0  0  0
 10  1  1  0  0  0  0
 14  6  1  0  0  0  0
 15  7  1  0  0  0  0
 16  8  1  0  0  0  0
M  END
