150
 OpenBabel08181812023D

  8  7  0  0  0  0  0  0  0  0999 V2000
   -0.7830   -0.1894    0.0828 C   0  0  0  0  0  0  0  0  0  0  0  0
    0.4767    0.4683   -0.4421 C   0  0  0  0  0  0  0  0  0  0  0  0
    0.5170    1.2778   -1.3339 O   0  0  0  0  0  0  0  0  0  0  0  0
    1.6394    0.0813    0.1767 O   0  0  0  0  0  0  0  0  0  0  0  0
   -0.7260   -1.2813   -0.0310 H   0  0  0  0  0  0  0  0  0  0  0  0
   -1.6466    0.1846   -0.4728 H   0  0  0  0  0  0  0  0  0  0  0  0
   -0.9183    0.0307    1.1512 H   0  0  0  0  0  0  0  0  0  0  0  0
    1.4407   -0.5719    0.8692 H   0  0  0  0  0  0  0  0  0  0  0  0
  1  7  1  0  0  0  0
  2  1  1  0  0  0  0
  2  4  1  0  0  0  0
  3  2  2  0  0  0  0
  4  8  1  0  0  0  0
  5  1  1  0  0  0  0
  6  1  1  0  0  0  0
M  END
