148
 OpenBabel08181812023D

  8  7  0  0  0  0  0  0  0  0999 V2000
   -1.2195   -0.0290    0.0941 C   0  0  0  0  0  0  0  0  0  0  0  0
    0.0285    0.3515    0.4002 C   0  0  0  0  0  0  0  0  0  0  0  0
    1.1820   -0.1876   -0.3382 C   0  0  0  0  0  0  0  0  0  0  0  0
    2.3427    0.1094   -0.1185 O   0  0  0  0  0  0  0  0  0  0  0  0
   -1.4002   -0.7461   -0.7102 H   0  0  0  0  0  0  0  0  0  0  0  0
   -2.0924    0.3526    0.6221 H   0  0  0  0  0  0  0  0  0  0  0  0
    0.2444    1.0659    1.1969 H   0  0  0  0  0  0  0  0  0  0  0  0
    0.9145   -0.9166   -1.1466 H   0  0  0  0  0  0  0  0  0  0  0  0
  1  2  2  0  0  0  0
  1  6  1  0  0  0  0
  2  7  1  0  0  0  0
  3  4  2  0  0  0  0
  3  2  1  0  0  0  0
  5  1  1  0  0  0  0
  8  3  1  0  0  0  0
M  END
