431
 OpenBabel08181812023D

  9  8  0  0  0  0  0  0  0  0999 V2000
    1.2621   -0.3659    0.1385 C   0  0  0  0  0  0  0  0  0  0  0  0
    0.4292    0.1902   -0.7441 C   0  0  0  0  0  0  0  0  0  0  0  0
   -1.0431    0.2668   -0.5473 C   0  0  0  0  0  0  0  0  0  0  0  0
   -1.9261   -0.6344   -1.8583 Cl  0  0  0  0  0  0  0  0  0  0  0  0
    2.3388   -0.3836   -0.0265 H   0  0  0  0  0  0  0  0  0  0  0  0
    0.8940   -0.8214    1.0597 H   0  0  0  0  0  0  0  0  0  0  0  0
    0.8151    0.6303   -1.6668 H   0  0  0  0  0  0  0  0  0  0  0  0
   -1.3546   -0.1782    0.4037 H   0  0  0  0  0  0  0  0  0  0  0  0
   -1.4154    1.2962   -0.6102 H   0  0  0  0  0  0  0  0  0  0  0  0
  1  6  1  0  0  0  0
  2  3  1  0  0  0  0
  2  1  2  0  0  0  0
  3  8  1  0  0  0  0
  4  3  1  0  0  0  0
  5  1  1  0  0  0  0
  7  2  1  0  0  0  0
  9  3  1  0  0  0  0
M  END
