433
 OpenBabel08181812023D

  9  8  0  0  0  0  0  0  0  0999 V2000
   -1.4298   -0.2783   -0.0038 C   0  0  0  0  0  0  0  0  0  0  0  0
   -0.3246    0.4713   -0.0837 C   0  0  0  0  0  0  0  0  0  0  0  0
    1.0204   -0.0110    0.2904 C   0  0  0  0  0  0  0  0  0  0  0  0
    2.3342   -0.1544   -1.4807 I   0  0  0  0  0  0  0  0  0  0  0  0
   -2.4082    0.1217   -0.2665 H   0  0  0  0  0  0  0  0  0  0  0  0
   -1.3909   -1.3171    0.3284 H   0  0  0  0  0  0  0  0  0  0  0  0
   -0.3907    1.5049   -0.4327 H   0  0  0  0  0  0  0  0  0  0  0  0
    1.0186   -1.0183    0.7150 H   0  0  0  0  0  0  0  0  0  0  0  0
    1.5711    0.6811    0.9334 H   0  0  0  0  0  0  0  0  0  0  0  0
  1  6  1  0  0  0  0
  2  1  2  0  0  0  0
  2  3  1  0  0  0  0
  3  8  1  0  0  0  0
  3  9  1  0  0  0  0
  4  3  1  0  0  0  0
  5  1  1  0  0  0  0
  7  2  1  0  0  0  0
M  END
