467
 OpenBabel08181812023D

 19 19  0  0  0  0  0  0  0  0999 V2000
   -2.1878   -1.2178   -0.1869 C   0  0  0  0  0  0  0  0  0  0  0  0
   -1.4643   -0.0231    0.3814 C   0  0  0  0  0  0  0  0  0  0  0  0
   -2.1350    0.9111    1.0790 C   0  0  0  0  0  0  0  0  0  0  0  0
   -0.0058    0.0864    0.1273 C   0  0  0  0  0  0  0  0  0  0  0  0
    0.8386    0.7906    1.0066 C   0  0  0  0  0  0  0  0  0  0  0  0
    2.2038    0.9063    0.7591 C   0  0  0  0  0  0  0  0  0  0  0  0
    2.7684    0.3139   -0.3737 C   0  0  0  0  0  0  0  0  0  0  0  0
    1.9508   -0.4011   -1.2489 C   0  0  0  0  0  0  0  0  0  0  0  0
    0.5834   -0.5195   -0.9973 C   0  0  0  0  0  0  0  0  0  0  0  0
   -1.6967   -2.1589    0.1003 H   0  0  0  0  0  0  0  0  0  0  0  0
   -2.2068   -1.1920   -1.2870 H   0  0  0  0  0  0  0  0  0  0  0  0
   -3.2272   -1.2441    0.1600 H   0  0  0  0  0  0  0  0  0  0  0  0
   -1.6529    1.8114    1.4582 H   0  0  0  0  0  0  0  0  0  0  0  0
   -3.2024    0.8069    1.2724 H   0  0  0  0  0  0  0  0  0  0  0  0
    0.4189    1.2312    1.9108 H   0  0  0  0  0  0  0  0  0  0  0  0
    2.8350    1.4511    1.4619 H   0  0  0  0  0  0  0  0  0  0  0  0
    3.8380    0.4002   -0.5652 H   0  0  0  0  0  0  0  0  0  0  0  0
    2.3778   -0.8725   -2.1347 H   0  0  0  0  0  0  0  0  0  0  0  0
   -0.0355   -1.0802   -1.6971 H   0  0  0  0  0  0  0  0  0  0  0  0
  1 10  1  0  0  0  0
  1 12  1  0  0  0  0
  1  2  1  0  0  0  0
  2  3  2  0  0  0  0
  3 14  1  0  0  0  0
  3 13  1  0  0  0  0
  4  2  1  0  0  0  0
  4  5  2  0  0  0  0
  5 15  1  0  0  0  0
  6  5  1  0  0  0  0
  6 16  1  0  0  0  0
  7  6  2  0  0  0  0
  8  9  2  0  0  0  0
  8  7  1  0  0  0  0
  9  4  1  0  0  0  0
 11  1  1  0  0  0  0
 17  7  1  0  0  0  0
 18  8  1  0  0  0  0
 19  9  1  0  0  0  0
M  END
