075
 OpenBabel08181812023D

  4  3  0  0  0  0  0  0  0  0999 V2000
   -0.0033   -0.0182    0.2922 N   0  0  0  0  0  0  0  0  0  0  0  0
    0.9334   -0.1380   -0.0960 H   0  0  0  0  0  0  0  0  0  0  0  0
   -0.5895   -0.7279   -0.1496 H   0  0  0  0  0  0  0  0  0  0  0  0
   -0.3408    0.8839   -0.0467 H   0  0  0  0  0  0  0  0  0  0  0  0
  2  1  1  0  0  0  0
  3  1  1  0  0  0  0
  4  1  1  0  0  0  0
M  END
