134
 OpenBabel08181812023D

 15 15  0  0  0  0  0  0  0  0999 V2000
   -2.1042   -0.1138    0.0561 C   0  0  0  0  0  0  0  0  0  0  0  0
   -1.4632    1.1073    0.2769 C   0  0  0  0  0  0  0  0  0  0  0  0
   -0.0705    1.1758    0.2701 C   0  0  0  0  0  0  0  0  0  0  0  0
    0.6981    0.0262    0.0430 C   0  0  0  0  0  0  0  0  0  0  0  0
    0.0458   -1.1948   -0.1752 C   0  0  0  0  0  0  0  0  0  0  0  0
   -1.3468   -1.2655   -0.1688 C   0  0  0  0  0  0  0  0  0  0  0  0
    2.1917    0.1005    0.0376 C   0  0  0  0  0  0  0  0  0  0  0  0
    2.8537    0.4456   -1.6273 Cl  0  0  0  0  0  0  0  0  0  0  0  0
   -3.1928   -0.1684    0.0624 H   0  0  0  0  0  0  0  0  0  0  0  0
   -2.0511    2.0072    0.4581 H   0  0  0  0  0  0  0  0  0  0  0  0
    0.4301    2.1302    0.4409 H   0  0  0  0  0  0  0  0  0  0  0  0
    0.6374   -2.0944   -0.3525 H   0  0  0  0  0  0  0  0  0  0  0  0
   -1.8435   -2.2212   -0.3361 H   0  0  0  0  0  0  0  0  0  0  0  0
    2.6507   -0.8453    0.3426 H   0  0  0  0  0  0  0  0  0  0  0  0
    2.5645    0.9108    0.6723 H   0  0  0  0  0  0  0  0  0  0  0  0
  1  9  1  0  0  0  0
  1  2  2  0  0  0  0
  2 10  1  0  0  0  0
  3  2  1  0  0  0  0
  3 11  1  0  0  0  0
  4  3  2  0  0  0  0
  5  6  2  0  0  0  0
  5  4  1  0  0  0  0
  6  1  1  0  0  0  0
  7  4  1  0  0  0  0
  7 14  1  0  0  0  0
  7 15  1  0  0  0  0
  8  7  1  0  0  0  0
 12  5  1  0  0  0  0
 13  6  1  0  0  0  0
M  END
