519
 OpenBabel08181812023D

 17 17  0  0  0  0  0  0  0  0999 V2000
   -2.4794   -0.1318    0.1324 C   0  0  0  0  0  0  0  0  0  0  0  0
   -1.9208    1.1050   -0.1921 C   0  0  0  0  0  0  0  0  0  0  0  0
   -0.5391    1.2256   -0.3567 C   0  0  0  0  0  0  0  0  0  0  0  0
    0.3022    0.1166   -0.2079 C   0  0  0  0  0  0  0  0  0  0  0  0
   -0.2681   -1.1203    0.1231 C   0  0  0  0  0  0  0  0  0  0  0  0
   -1.6473   -1.2431    0.2915 C   0  0  0  0  0  0  0  0  0  0  0  0
    1.7942    0.2501   -0.4292 C   0  0  0  0  0  0  0  0  0  0  0  0
    2.5651   -0.5225    0.5530 N   0  0  0  0  0  0  0  0  0  0  0  0
   -3.5570   -0.2305    0.2656 H   0  0  0  0  0  0  0  0  0  0  0  0
   -2.5603    1.9803   -0.3104 H   0  0  0  0  0  0  0  0  0  0  0  0
   -0.1049    2.1971   -0.6025 H   0  0  0  0  0  0  0  0  0  0  0  0
    0.3865   -1.9816    0.2570 H   0  0  0  0  0  0  0  0  0  0  0  0
   -2.0764   -2.2122    0.5483 H   0  0  0  0  0  0  0  0  0  0  0  0
    2.0443   -0.1535   -1.4247 H   0  0  0  0  0  0  0  0  0  0  0  0
    2.0470    1.3273   -0.4606 H   0  0  0  0  0  0  0  0  0  0  0  0
    3.5595   -0.4882    0.3294 H   0  0  0  0  0  0  0  0  0  0  0  0
    2.4545   -0.1185    1.4839 H   0  0  0  0  0  0  0  0  0  0  0  0
  1  9  1  0  0  0  0
  1  6  1  0  0  0  0
  2  1  2  0  0  0  0
  3  4  2  0  0  0  0
  3  2  1  0  0  0  0
  4  5  1  0  0  0  0
  5 12  1  0  0  0  0
  5  6  2  0  0  0  0
  6 13  1  0  0  0  0
  7  4  1  0  0  0  0
  7  8  1  0  0  0  0
  8 17  1  0  0  0  0
 10  2  1  0  0  0  0
 11  3  1  0  0  0  0
 14  7  1  0  0  0  0
 15  7  1  0  0  0  0
 16  8  1  0  0  0  0
M  END
