262
 OpenBabel08181812023D

 14 14  0  0  0  0  0  0  0  0999 V2000
   -1.9133   -0.0729   -0.0783 C   0  0  0  0  0  0  0  0  0  0  0  0
   -1.2835    0.9559    0.6257 C   0  0  0  0  0  0  0  0  0  0  0  0
    0.1088    1.0031    0.6787 C   0  0  0  0  0  0  0  0  0  0  0  0
    0.8731    0.0238    0.0294 C   0  0  0  0  0  0  0  0  0  0  0  0
    0.2342   -1.0081   -0.6768 C   0  0  0  0  0  0  0  0  0  0  0  0
   -1.1544   -1.0541   -0.7290 C   0  0  0  0  0  0  0  0  0  0  0  0
    2.3496    0.0938    0.0991 C   0  0  0  0  0  0  0  0  0  0  0  0
    3.1140   -0.6978   -0.4232 O   0  0  0  0  0  0  0  0  0  0  0  0
   -3.0020   -0.1126   -0.1217 H   0  0  0  0  0  0  0  0  0  0  0  0
   -1.8785    1.7169    1.1302 H   0  0  0  0  0  0  0  0  0  0  0  0
    0.6162    1.8011    1.2249 H   0  0  0  0  0  0  0  0  0  0  0  0
    0.8506   -1.7576   -1.1733 H   0  0  0  0  0  0  0  0  0  0  0  0
   -1.6548   -1.8530   -1.2763 H   0  0  0  0  0  0  0  0  0  0  0  0
    2.7401    0.9614    0.6908 H   0  0  0  0  0  0  0  0  0  0  0  0
  1  2  2  0  0  0  0
  2  3  1  0  0  0  0
  2 10  1  0  0  0  0
  3 11  1  0  0  0  0
  4  7  1  0  0  0  0
  4  3  2  0  0  0  0
  5  4  1  0  0  0  0
  6  5  2  0  0  0  0
  6  1  1  0  0  0  0
  7 14  1  0  0  0  0
  8  7  2  0  0  0  0
  9  1  1  0  0  0  0
 12  5  1  0  0  0  0
 13  6  1  0  0  0  0
M  END
