234
 OpenBabel08181812023D

 16 16  0  0  0  0  0  0  0  0999 V2000
   -2.2537   -0.0437   -0.0460 C   0  0  0  0  0  0  0  0  0  0  0  0
   -1.5671   -1.1002    0.5521 C   0  0  0  0  0  0  0  0  0  0  0  0
   -0.1704   -1.1316    0.5204 C   0  0  0  0  0  0  0  0  0  0  0  0
    0.5549   -0.1152   -0.1119 C   0  0  0  0  0  0  0  0  0  0  0  0
   -0.1459    0.9428   -0.7102 C   0  0  0  0  0  0  0  0  0  0  0  0
   -1.5386    0.9791   -0.6769 C   0  0  0  0  0  0  0  0  0  0  0  0
    2.0649   -0.1431   -0.1400 C   0  0  0  0  0  0  0  0  0  0  0  0
    2.6648    1.0242    0.4392 O   0  0  0  0  0  0  0  0  0  0  0  0
   -3.3432   -0.0143   -0.0217 H   0  0  0  0  0  0  0  0  0  0  0  0
   -2.1174   -1.9000    1.0482 H   0  0  0  0  0  0  0  0  0  0  0  0
    0.3657   -1.9588    0.9901 H   0  0  0  0  0  0  0  0  0  0  0  0
    0.4125    1.7429   -1.1982 H   0  0  0  0  0  0  0  0  0  0  0  0
   -2.0708    1.8062   -1.1478 H   0  0  0  0  0  0  0  0  0  0  0  0
    2.4315   -0.1608   -1.1767 H   0  0  0  0  0  0  0  0  0  0  0  0
    2.4278   -1.0618    0.3543 H   0  0  0  0  0  0  0  0  0  0  0  0
    2.2847    1.1349    1.3252 H   0  0  0  0  0  0  0  0  0  0  0  0
  1  9  1  0  0  0  0
  1  2  2  0  0  0  0
  2 10  1  0  0  0  0
  3  2  1  0  0  0  0
  3 11  1  0  0  0  0
  4  3  2  0  0  0  0
  5  6  2  0  0  0  0
  5  4  1  0  0  0  0
  6  1  1  0  0  0  0
  7  4  1  0  0  0  0
  7 15  1  0  0  0  0
  7  8  1  0  0  0  0
  8 16  1  0  0  0  0
 12  5  1  0  0  0  0
 13  6  1  0  0  0  0
 14  7  1  0  0  0  0
M  END
