455
 OpenBabel08181812023D

 15 15  0  0  0  0  0  0  0  0999 V2000
   -2.0160    0.3882    0.4304 C   0  0  0  0  0  0  0  0  0  0  0  0
   -1.0615    1.3974    0.2938 C   0  0  0  0  0  0  0  0  0  0  0  0
    0.2578    1.0703   -0.0190 C   0  0  0  0  0  0  0  0  0  0  0  0
    0.6329   -0.2686   -0.2053 C   0  0  0  0  0  0  0  0  0  0  0  0
   -0.3372   -1.2738   -0.0841 C   0  0  0  0  0  0  0  0  0  0  0  0
   -1.6512   -0.9474    0.2401 C   0  0  0  0  0  0  0  0  0  0  0  0
    2.0283   -0.6913   -0.5574 C   0  0  0  0  0  0  0  0  0  0  0  0
    2.2994   -1.7595   -1.0566 O   0  0  0  0  0  0  0  0  0  0  0  0
    3.0286    0.1997   -0.2815 O   0  0  0  0  0  0  0  0  0  0  0  0
   -3.0460    0.6442    0.6789 H   0  0  0  0  0  0  0  0  0  0  0  0
   -1.3448    2.4417    0.4235 H   0  0  0  0  0  0  0  0  0  0  0  0
    0.9782    1.8803   -0.1555 H   0  0  0  0  0  0  0  0  0  0  0  0
   -0.0350   -2.3073   -0.2489 H   0  0  0  0  0  0  0  0  0  0  0  0
   -2.3963   -1.7363    0.3421 H   0  0  0  0  0  0  0  0  0  0  0  0
    2.6628    0.9623    0.1995 H   0  0  0  0  0  0  0  0  0  0  0  0
  1 10  1  0  0  0  0
  2 11  1  0  0  0  0
  2  1  1  0  0  0  0
  3  2  2  0  0  0  0
  4  5  2  0  0  0  0
  4  3  1  0  0  0  0
  5  6  1  0  0  0  0
  6 14  1  0  0  0  0
  6  1  2  0  0  0  0
  7  9  1  0  0  0  0
  7  4  1  0  0  0  0
  8  7  2  0  0  0  0
  9 15  1  0  0  0  0
 12  3  1  0  0  0  0
 13  5  1  0  0  0  0
M  END
