502
 OpenBabel08181812023D

 16 16  0  0  0  0  0  0  0  0999 V2000
   -2.3036   -0.0634   -0.1549 C   0  0  0  0  0  0  0  0  0  0  0  0
   -1.6128    1.1022   -0.4909 C   0  0  0  0  0  0  0  0  0  0  0  0
   -0.2325    1.1770   -0.3005 C   0  0  0  0  0  0  0  0  0  0  0  0
    0.4687    0.0883    0.2280 C   0  0  0  0  0  0  0  0  0  0  0  0
   -0.2284   -1.0773    0.5624 C   0  0  0  0  0  0  0  0  0  0  0  0
   -1.6086   -1.1532    0.3724 C   0  0  0  0  0  0  0  0  0  0  0  0
    1.9745    0.1672    0.4273 C   0  0  0  0  0  0  0  0  0  0  0  0
    2.7254   -0.2811   -0.7448 C   0  0  0  0  0  0  0  0  0  0  0  0
    3.3167   -0.6384   -1.6793 N   0  0  0  0  0  0  0  0  0  0  0  0
   -3.3818   -0.1217   -0.3021 H   0  0  0  0  0  0  0  0  0  0  0  0
   -2.1503    1.9572   -0.9009 H   0  0  0  0  0  0  0  0  0  0  0  0
    0.3044    2.0890   -0.5665 H   0  0  0  0  0  0  0  0  0  0  0  0
    0.3118   -1.9320    0.9728 H   0  0  0  0  0  0  0  0  0  0  0  0
   -2.1430   -2.0650    0.6388 H   0  0  0  0  0  0  0  0  0  0  0  0
    2.2783    1.2003    0.6527 H   0  0  0  0  0  0  0  0  0  0  0  0
    2.2811   -0.4491    1.2855 H   0  0  0  0  0  0  0  0  0  0  0  0
  1  6  2  0  0  0  0
  2  3  2  0  0  0  0
  2  1  1  0  0  0  0
  3  4  1  0  0  0  0
  4  7  1  0  0  0  0
  4  5  2  0  0  0  0
  5 13  1  0  0  0  0
  6  5  1  0  0  0  0
  6 14  1  0  0  0  0
  7 15  1  0  0  0  0
  7 16  1  0  0  0  0
  8  7  1  0  0  0  0
  9  8  3  0  0  0  0
 10  1  1  0  0  0  0
 11  2  1  0  0  0  0
 12  3  1  0  0  0  0
M  END
