135
 OpenBabel08181812023D

 15 15  0  0  0  0  0  0  0  0999 V2000
   -2.0997    0.2101    0.1186 C   0  0  0  0  0  0  0  0  0  0  0  0
   -1.2826    1.3428    0.1048 C   0  0  0  0  0  0  0  0  0  0  0  0
    0.0996    1.2052   -0.0110 C   0  0  0  0  0  0  0  0  0  0  0  0
    0.6840   -0.0654   -0.1161 C   0  0  0  0  0  0  0  0  0  0  0  0
   -0.1458   -1.1961   -0.1036 C   0  0  0  0  0  0  0  0  0  0  0  0
   -1.5282   -1.0600    0.0121 C   0  0  0  0  0  0  0  0  0  0  0  0
    2.1588   -0.2110   -0.2513 C   0  0  0  0  0  0  0  0  0  0  0  0
    3.0626   -0.3725    1.5273 Br  0  0  0  0  0  0  0  0  0  0  0  0
   -3.1807    0.3171    0.2091 H   0  0  0  0  0  0  0  0  0  0  0  0
   -1.7253    2.3359    0.1824 H   0  0  0  0  0  0  0  0  0  0  0  0
    0.7376    2.0905   -0.0184 H   0  0  0  0  0  0  0  0  0  0  0  0
    0.3001   -2.1888   -0.1835 H   0  0  0  0  0  0  0  0  0  0  0  0
   -2.1631   -1.9460    0.0172 H   0  0  0  0  0  0  0  0  0  0  0  0
    2.6325    0.6610   -0.7092 H   0  0  0  0  0  0  0  0  0  0  0  0
    2.4500   -1.1231   -0.7783 H   0  0  0  0  0  0  0  0  0  0  0  0
  1  9  1  0  0  0  0
  2  1  1  0  0  0  0
  2 10  1  0  0  0  0
  3  2  2  0  0  0  0
  4  5  2  0  0  0  0
  4  3  1  0  0  0  0
  5  6  1  0  0  0  0
  6 13  1  0  0  0  0
  6  1  2  0  0  0  0
  7  4  1  0  0  0  0
  7  8  1  0  0  0  0
 11  3  1  0  0  0  0
 12  5  1  0  0  0  0
 14  7  1  0  0  0  0
 15  7  1  0  0  0  0
M  END
