560
 OpenBabel08181812023D

 22 23  0  0  0  0  0  0  0  0999 V2000
   -3.5259   -0.4929   -0.1398 C   0  0  0  0  0  0  0  0  0  0  0  0
   -2.8803    0.2288   -1.1457 C   0  0  0  0  0  0  0  0  0  0  0  0
   -1.5005    0.4219   -1.0971 C   0  0  0  0  0  0  0  0  0  0  0  0
   -0.7332   -0.1021   -0.0423 C   0  0  0  0  0  0  0  0  0  0  0  0
   -1.3977   -0.8263    0.9627 C   0  0  0  0  0  0  0  0  0  0  0  0
   -2.7776   -1.0195    0.9149 C   0  0  0  0  0  0  0  0  0  0  0  0
    0.7331    0.1027    0.0087 C   0  0  0  0  0  0  0  0  0  0  0  0
    1.3088    1.3161   -0.4062 C   0  0  0  0  0  0  0  0  0  0  0  0
    2.6888    1.5091   -0.3584 C   0  0  0  0  0  0  0  0  0  0  0  0
    3.5260    0.4925    0.1053 C   0  0  0  0  0  0  0  0  0  0  0  0
    2.9693   -0.7186    0.5209 C   0  0  0  0  0  0  0  0  0  0  0  0
    1.5893   -0.9108    0.4732 C   0  0  0  0  0  0  0  0  0  0  0  0
   -4.6047   -0.6440   -0.1775 H   0  0  0  0  0  0  0  0  0  0  0  0
   -3.4532    0.6366   -1.9791 H   0  0  0  0  0  0  0  0  0  0  0  0
   -1.0037    0.9646   -1.9020 H   0  0  0  0  0  0  0  0  0  0  0  0
   -0.8275   -1.2198    1.8048 H   0  0  0  0  0  0  0  0  0  0  0  0
   -3.2724   -1.5768    1.7109 H   0  0  0  0  0  0  0  0  0  0  0  0
    0.6629    2.1265   -0.7455 H   0  0  0  0  0  0  0  0  0  0  0  0
    3.1115    2.4626   -0.6766 H   0  0  0  0  0  0  0  0  0  0  0  0
    4.6049    0.6431    0.1427 H   0  0  0  0  0  0  0  0  0  0  0  0
    3.6140   -1.5231    0.8760 H   0  0  0  0  0  0  0  0  0  0  0  0
    1.1682   -1.8702    0.7756 H   0  0  0  0  0  0  0  0  0  0  0  0
  1  6  2  0  0  0  0
  2  3  2  0  0  0  0
  2  1  1  0  0  0  0
  3  4  1  0  0  0  0
  4  7  1  0  0  0  0
  4  5  2  0  0  0  0
  5 16  1  0  0  0  0
  6  5  1  0  0  0  0
  6 17  1  0  0  0  0
  7 12  2  0  0  0  0
  8  9  2  0  0  0  0
  8  7  1  0  0  0  0
  9 10  1  0  0  0  0
 10 20  1  0  0  0  0
 10 11  2  0  0  0  0
 11 21  1  0  0  0  0
 12 11  1  0  0  0  0
 12 22  1  0  0  0  0
 13  1  1  0  0  0  0
 14  2  1  0  0  0  0
 15  3  1  0  0  0  0
 18  8  1  0  0  0  0
 19  9  1  0  0  0  0
M  END
