313
 OpenBabel08181812023D

 17 16  0  0  0  0  0  0  0  0999 V2000
   -1.8468   -0.8159   -0.5019 C   0  0  0  0  0  0  0  0  0  0  0  0
   -3.1175   -0.2406    0.0824 C   0  0  0  0  0  0  0  0  0  0  0  0
   -3.0608    1.5513    0.2408 Cl  0  0  0  0  0  0  0  0  0  0  0  0
   -0.8280   -0.7121    0.5032 O   0  0  0  0  0  0  0  0  0  0  0  0
    0.4193   -1.1547   -0.0727 O   0  0  0  0  0  0  0  0  0  0  0  0
    0.9770   -0.0496   -0.8407 O   0  0  0  0  0  0  0  0  0  0  0  0
    1.6788    0.8324    0.0447 C   0  0  0  0  0  0  0  0  0  0  0  0
    3.1441    0.4860    0.2238 C   0  0  0  0  0  0  0  0  0  0  0  0
    3.4272   -0.9554    1.2588 Cl  0  0  0  0  0  0  0  0  0  0  0  0
   -2.0118   -1.8776   -0.7535 H   0  0  0  0  0  0  0  0  0  0  0  0
   -1.5397   -0.2651   -1.4023 H   0  0  0  0  0  0  0  0  0  0  0  0
   -3.9620   -0.4773   -0.5741 H   0  0  0  0  0  0  0  0  0  0  0  0
   -3.3129   -0.6429    1.0828 H   0  0  0  0  0  0  0  0  0  0  0  0
    1.6163    1.8142   -0.4547 H   0  0  0  0  0  0  0  0  0  0  0  0
    1.1419    0.9009    1.0008 H   0  0  0  0  0  0  0  0  0  0  0  0
    3.6616    1.3260    0.7037 H   0  0  0  0  0  0  0  0  0  0  0  0
    3.6132    0.2804   -0.7451 H   0  0  0  0  0  0  0  0  0  0  0  0
  1  2  1  0  0  0  0
  1  4  1  0  0  0  0
  2  3  1  0  0  0  0
  2 13  1  0  0  0  0
  5  4  1  0  0  0  0
  6  5  1  0  0  0  0
  6  7  1  0  0  0  0
  7  8  1  0  0  0  0
  7 15  1  0  0  0  0
  8 16  1  0  0  0  0
  8  9  1  0  0  0  0
 10  1  1  0  0  0  0
 11  1  1  0  0  0  0
 12  2  1  0  0  0  0
 14  7  1  0  0  0  0
 17  8  1  0  0  0  0
M  END
