231
 OpenBabel08181812023D

 12 12  0  0  0  0  0  0  0  0999 V2000
   -1.4263    0.3405   -0.0122 C   0  0  0  0  0  0  0  0  0  0  0  0
   -1.0253   -0.9961    0.0254 C   0  0  0  0  0  0  0  0  0  0  0  0
    0.3311   -1.3293    0.0373 C   0  0  0  0  0  0  0  0  0  0  0  0
    1.2760   -0.3046    0.0109 C   0  0  0  0  0  0  0  0  0  0  0  0
    0.8964    1.0362   -0.0268 C   0  0  0  0  0  0  0  0  0  0  0  0
   -0.4642    1.3517   -0.0382 C   0  0  0  0  0  0  0  0  0  0  0  0
    3.1351   -0.7485    0.0268 Br  0  0  0  0  0  0  0  0  0  0  0  0
   -2.4860    0.5935   -0.0213 H   0  0  0  0  0  0  0  0  0  0  0  0
   -1.7696   -1.7923    0.0459 H   0  0  0  0  0  0  0  0  0  0  0  0
    0.6497   -2.3696    0.0667 H   0  0  0  0  0  0  0  0  0  0  0  0
    1.6511    1.8203   -0.0469 H   0  0  0  0  0  0  0  0  0  0  0  0
   -0.7681    2.3982   -0.0676 H   0  0  0  0  0  0  0  0  0  0  0  0
  1  2  2  0  0  0  0
  2  3  1  0  0  0  0
  2  9  1  0  0  0  0
  3 10  1  0  0  0  0
  4  7  1  0  0  0  0
  4  3  2  0  0  0  0
  5  4  1  0  0  0  0
  6  5  2  0  0  0  0
  6  1  1  0  0  0  0
  8  1  1  0  0  0  0
 11  5  1  0  0  0  0
 12  6  1  0  0  0  0
M  END
