338
 OpenBabel08181812023D

 10  9  0  0  0  0  0  0  0  0999 V2000
   -1.1277    0.6717   -0.3491 C   0  0  0  0  0  0  0  0  0  0  0  0
   -0.3539   -0.5801    0.0962 C   0  0  0  0  0  0  0  0  0  0  0  0
    1.0924   -0.4101    0.0460 C   0  0  0  0  0  0  0  0  0  0  0  0
    2.2909   -0.2462   -0.0035 C   0  0  0  0  0  0  0  0  0  0  0  0
   -0.8751    0.9399   -1.3823 H   0  0  0  0  0  0  0  0  0  0  0  0
   -2.2091    0.4913   -0.2927 H   0  0  0  0  0  0  0  0  0  0  0  0
   -0.8859    1.5286    0.2916 H   0  0  0  0  0  0  0  0  0  0  0  0
   -0.6463   -0.8528    1.1229 H   0  0  0  0  0  0  0  0  0  0  0  0
   -0.6353   -1.4366   -0.5372 H   0  0  0  0  0  0  0  0  0  0  0  0
    3.3499   -0.1057   -0.0459 H   0  0  0  0  0  0  0  0  0  0  0  0
  1  6  1  0  0  0  0
  1  2  1  0  0  0  0
  1  7  1  0  0  0  0
  2  8  1  0  0  0  0
  3  2  1  0  0  0  0
  4  3  3  0  0  0  0
  5  1  1  0  0  0  0
  9  2  1  0  0  0  0
 10  4  1  0  0  0  0
M  END
