438
 OpenBabel08181812023D

 15 14  0  0  0  0  0  0  0  0999 V2000
   -2.0568    0.2935   -0.5387 C   0  0  0  0  0  0  0  0  0  0  0  0
   -0.8205    0.2004    0.3551 C   0  0  0  0  0  0  0  0  0  0  0  0
    0.3491   -0.5186   -0.3179 C   0  0  0  0  0  0  0  0  0  0  0  0
    1.6117   -0.6170    0.5379 C   0  0  0  0  0  0  0  0  0  0  0  0
    2.4270    0.9790    0.9272 S   0  0  0  0  0  0  0  0  0  0  0  0
   -1.8405    0.8558   -1.4586 H   0  0  0  0  0  0  0  0  0  0  0  0
   -2.4129   -0.7035   -0.8372 H   0  0  0  0  0  0  0  0  0  0  0  0
   -2.8843    0.8022   -0.0261 H   0  0  0  0  0  0  0  0  0  0  0  0
   -0.4970    1.2089    0.6541 H   0  0  0  0  0  0  0  0  0  0  0  0
   -1.0768   -0.3301    1.2873 H   0  0  0  0  0  0  0  0  0  0  0  0
    0.0419   -1.5466   -0.5801 H   0  0  0  0  0  0  0  0  0  0  0  0
    0.5932   -0.0212   -1.2711 H   0  0  0  0  0  0  0  0  0  0  0  0
    1.3755   -1.0383    1.5262 H   0  0  0  0  0  0  0  0  0  0  0  0
    2.3541   -1.2798    0.0760 H   0  0  0  0  0  0  0  0  0  0  0  0
    2.8362    1.2512   -0.3339 H   0  0  0  0  0  0  0  0  0  0  0  0
  1  8  1  0  0  0  0
  1  2  1  0  0  0  0
  2  9  1  0  0  0  0
  2 10  1  0  0  0  0
  3  2  1  0  0  0  0
  3  4  1  0  0  0  0
  4  5  1  0  0  0  0
  4 13  1  0  0  0  0
  6  1  1  0  0  0  0
  7  1  1  0  0  0  0
 11  3  1  0  0  0  0
 12  3  1  0  0  0  0
 14  4  1  0  0  0  0
 15  5  1  0  0  0  0
M  END
