060
 OpenBabel08181812023D

 13 12  0  0  0  0  0  0  0  0999 V2000
   -1.5966   -0.1519   -0.1281 C   0  0  0  0  0  0  0  0  0  0  0  0
   -0.3225   -0.9653    0.1481 C   0  0  0  0  0  0  0  0  0  0  0  0
    0.9213   -0.2903   -0.4047 C   0  0  0  0  0  0  0  0  0  0  0  0
    1.5498   -0.7639   -1.3362 O   0  0  0  0  0  0  0  0  0  0  0  0
    1.3553    1.0177    0.2407 C   0  0  0  0  0  0  0  0  0  0  0  0
   -1.7580   -0.0330   -1.2076 H   0  0  0  0  0  0  0  0  0  0  0  0
   -1.5485    0.8498    0.3198 H   0  0  0  0  0  0  0  0  0  0  0  0
   -2.4745   -0.6606    0.2897 H   0  0  0  0  0  0  0  0  0  0  0  0
   -0.3927   -1.9621   -0.3048 H   0  0  0  0  0  0  0  0  0  0  0  0
   -0.1967   -1.0878    1.2366 H   0  0  0  0  0  0  0  0  0  0  0  0
    0.7433    1.3040    1.1040 H   0  0  0  0  0  0  0  0  0  0  0  0
    1.3157    1.8194   -0.5092 H   0  0  0  0  0  0  0  0  0  0  0  0
    2.4041    0.9236    0.5515 H   0  0  0  0  0  0  0  0  0  0  0  0
  1  2  1  0  0  0  0
  1  8  1  0  0  0  0
  1  7  1  0  0  0  0
  2 10  1  0  0  0  0
  3  2  1  0  0  0  0
  3  5  1  0  0  0  0
  4  3  2  0  0  0  0
  5 13  1  0  0  0  0
  5 11  1  0  0  0  0
  6  1  1  0  0  0  0
  9  2  1  0  0  0  0
 12  5  1  0  0  0  0
M  END
