346
 OpenBabel08181812023D

 12 12  0  0  0  0  0  0  0  0999 V2000
   -0.6961    0.7206    0.0116 C   0  0  0  0  0  0  0  0  0  0  0  0
    0.8213    0.7237    0.2213 C   0  0  0  0  0  0  0  0  0  0  0  0
    1.2693   -0.7229    0.0669 C   0  0  0  0  0  0  0  0  0  0  0  0
    2.3850   -1.1691    0.1538 O   0  0  0  0  0  0  0  0  0  0  0  0
    0.1880   -1.5191   -0.2009 O   0  0  0  0  0  0  0  0  0  0  0  0
   -1.0418   -0.7647   -0.2576 C   0  0  0  0  0  0  0  0  0  0  0  0
   -0.9924    1.3483   -0.8363 H   0  0  0  0  0  0  0  0  0  0  0  0
   -1.2309    1.0903    0.8936 H   0  0  0  0  0  0  0  0  0  0  0  0
    1.1303    1.0732    1.2144 H   0  0  0  0  0  0  0  0  0  0  0  0
    1.3681    1.3309   -0.5109 H   0  0  0  0  0  0  0  0  0  0  0  0
   -1.4803   -0.9254   -1.2510 H   0  0  0  0  0  0  0  0  0  0  0  0
   -1.7206   -1.1859    0.4954 H   0  0  0  0  0  0  0  0  0  0  0  0
  1  2  1  0  0  0  0
  1  8  1  0  0  0  0
  2  9  1  0  0  0  0
  3  4  2  0  0  0  0
  3  2  1  0  0  0  0
  5  3  1  0  0  0  0
  6  5  1  0  0  0  0
  6  1  1  0  0  0  0
  6 12  1  0  0  0  0
  7  1  1  0  0  0  0
 10  2  1  0  0  0  0
 11  6  1  0  0  0  0
M  END
