609
 OpenBabel08181812023D

 30 30  0  0  0  0  0  0  0  0999 V2000
    4.1915    0.1734   -0.0823 C   0  0  0  0  0  0  0  0  0  0  0  0
    2.7911    0.0786    0.5236 C   0  0  0  0  0  0  0  0  0  0  0  0
    1.8892   -0.9223   -0.2050 C   0  0  0  0  0  0  0  0  0  0  0  0
    0.5168   -1.1370    0.4484 C   0  0  0  0  0  0  0  0  0  0  0  0
   -0.4092    0.0902    0.4937 C   0  0  0  0  0  0  0  0  0  0  0  0
   -0.7076    0.6392   -0.9213 C   0  0  0  0  0  0  0  0  0  0  0  0
   -2.0155    1.4347   -0.9501 C   0  0  0  0  0  0  0  0  0  0  0  0
   -3.2243    0.5202   -0.6561 C   0  0  0  0  0  0  0  0  0  0  0  0
   -2.8450   -0.6467    0.2815 C   0  0  0  0  0  0  0  0  0  0  0  0
   -1.7293   -0.2322    1.2445 C   0  0  0  0  0  0  0  0  0  0  0  0
    4.8166    0.8988    0.4565 H   0  0  0  0  0  0  0  0  0  0  0  0
    4.1496    0.4878   -1.1354 H   0  0  0  0  0  0  0  0  0  0  0  0
    4.7049   -0.7987   -0.0490 H   0  0  0  0  0  0  0  0  0  0  0  0
    2.3250    1.0766    0.5171 H   0  0  0  0  0  0  0  0  0  0  0  0
    2.8680   -0.2128    1.5845 H   0  0  0  0  0  0  0  0  0  0  0  0
    2.4083   -1.8943   -0.2505 H   0  0  0  0  0  0  0  0  0  0  0  0
    1.7640   -0.6036   -1.2531 H   0  0  0  0  0  0  0  0  0  0  0  0
    0.6704   -1.4997    1.4791 H   0  0  0  0  0  0  0  0  0  0  0  0
   -0.0077   -1.9489   -0.0851 H   0  0  0  0  0  0  0  0  0  0  0  0
    0.1040    0.8847    1.0606 H   0  0  0  0  0  0  0  0  0  0  0  0
    0.1300    1.2582   -1.2735 H   0  0  0  0  0  0  0  0  0  0  0  0
   -0.7839   -0.2016   -1.6330 H   0  0  0  0  0  0  0  0  0  0  0  0
   -1.9590    2.2378   -0.1975 H   0  0  0  0  0  0  0  0  0  0  0  0
   -2.1457    1.9366   -1.9196 H   0  0  0  0  0  0  0  0  0  0  0  0
   -3.6252    0.1171   -1.5985 H   0  0  0  0  0  0  0  0  0  0  0  0
   -4.0343    1.1142   -0.2064 H   0  0  0  0  0  0  0  0  0  0  0  0
   -3.7287   -0.9924    0.8367 H   0  0  0  0  0  0  0  0  0  0  0  0
   -2.5054   -1.5102   -0.3125 H   0  0  0  0  0  0  0  0  0  0  0  0
   -2.0622    0.6519    1.8117 H   0  0  0  0  0  0  0  0  0  0  0  0
   -1.5465   -1.0202    1.9909 H   0  0  0  0  0  0  0  0  0  0  0  0
  1 13  1  0  0  0  0
  1 11  1  0  0  0  0
  1  2  1  0  0  0  0
  2 15  1  0  0  0  0
  3  4  1  0  0  0  0
  3  2  1  0  0  0  0
  4  5  1  0  0  0  0
  4 18  1  0  0  0  0
  5 20  1  0  0  0  0
  5 10  1  0  0  0  0
  6  5  1  0  0  0  0
  7  6  1  0  0  0  0
  7  8  1  0  0  0  0
  7 23  1  0  0  0  0
  8 26  1  0  0  0  0
  8  9  1  0  0  0  0
  9 27  1  0  0  0  0
  9 10  1  0  0  0  0
 10 29  1  0  0  0  0
 10 30  1  0  0  0  0
 12  1  1  0  0  0  0
 14  2  1  0  0  0  0
 16  3  1  0  0  0  0
 17  3  1  0  0  0  0
 19  4  1  0  0  0  0
 21  6  1  0  0  0  0
 22  6  1  0  0  0  0
 24  7  1  0  0  0  0
 25  8  1  0  0  0  0
 28  9  1  0  0  0  0
M  END
