074
 OpenBabel08181812023D

 12 11  0  0  0  0  0  0  0  0999 V2000
   -1.3543    0.4105    0.2026 C   0  0  0  0  0  0  0  0  0  0  0  0
   -0.3543   -0.7258    0.0050 C   0  0  0  0  0  0  0  0  0  0  0  0
    1.0116   -0.2499   -0.5299 C   0  0  0  0  0  0  0  0  0  0  0  0
    1.6997    0.6492    0.3909 C   0  0  0  0  0  0  0  0  0  0  0  0
    2.2318    1.3591    1.1418 N   0  0  0  0  0  0  0  0  0  0  0  0
   -0.9765    1.1524    0.9189 H   0  0  0  0  0  0  0  0  0  0  0  0
   -1.5581    0.9311   -0.7439 H   0  0  0  0  0  0  0  0  0  0  0  0
   -2.3089    0.0294    0.5866 H   0  0  0  0  0  0  0  0  0  0  0  0
   -0.7495   -1.4612   -0.7106 H   0  0  0  0  0  0  0  0  0  0  0  0
   -0.1959   -1.2611    0.9520 H   0  0  0  0  0  0  0  0  0  0  0  0
    0.8832    0.2754   -1.4894 H   0  0  0  0  0  0  0  0  0  0  0  0
    1.6710   -1.1088   -0.7242 H   0  0  0  0  0  0  0  0  0  0  0  0
  1  8  1  0  0  0  0
  1  6  1  0  0  0  0
  2  1  1  0  0  0  0
  2 10  1  0  0  0  0
  3  2  1  0  0  0  0
  3  4  1  0  0  0  0
  4  5  3  0  0  0  0
  7  1  1  0  0  0  0
  9  2  1  0  0  0  0
 11  3  1  0  0  0  0
 12  3  1  0  0  0  0
M  END
