387
 OpenBabel08181812023D

 26 25  0  0  0  0  0  0  0  0999 V2000
   -3.7625    0.6429   -1.0451 C   0  0  0  0  0  0  0  0  0  0  0  0
   -2.3604    0.6742   -0.4365 C   0  0  0  0  0  0  0  0  0  0  0  0
   -1.9918   -0.6297    0.2780 C   0  0  0  0  0  0  0  0  0  0  0  0
   -0.6197   -0.6202    0.9637 C   0  0  0  0  0  0  0  0  0  0  0  0
    0.5737   -0.5803    0.0050 C   0  0  0  0  0  0  0  0  0  0  0  0
    1.9192   -0.5812    0.7337 C   0  0  0  0  0  0  0  0  0  0  0  0
    3.1322   -0.6036   -0.2100 C   0  0  0  0  0  0  0  0  0  0  0  0
    3.2422    0.6002   -1.1173 C   0  0  0  0  0  0  0  0  0  0  0  0
    3.3465    0.5752   -2.3259 O   0  0  0  0  0  0  0  0  0  0  0  0
    3.2293    1.7728   -0.4134 O   0  0  0  0  0  0  0  0  0  0  0  0
   -4.5257    0.4601   -0.2746 H   0  0  0  0  0  0  0  0  0  0  0  0
   -4.0100    1.5911   -1.5409 H   0  0  0  0  0  0  0  0  0  0  0  0
   -3.8525   -0.1572   -1.7939 H   0  0  0  0  0  0  0  0  0  0  0  0
   -2.2882    1.5078    0.2819 H   0  0  0  0  0  0  0  0  0  0  0  0
   -1.6263    0.8903   -1.2280 H   0  0  0  0  0  0  0  0  0  0  0  0
   -2.0342   -1.4645   -0.4429 H   0  0  0  0  0  0  0  0  0  0  0  0
   -2.7651   -0.8451    1.0335 H   0  0  0  0  0  0  0  0  0  0  0  0
   -0.5641    0.2426    1.6497 H   0  0  0  0  0  0  0  0  0  0  0  0
   -0.5305   -1.5170    1.5986 H   0  0  0  0  0  0  0  0  0  0  0  0
    0.5238   -1.4492   -0.6734 H   0  0  0  0  0  0  0  0  0  0  0  0
    0.5097    0.3117   -0.6383 H   0  0  0  0  0  0  0  0  0  0  0  0
    1.9861    0.2982    1.3912 H   0  0  0  0  0  0  0  0  0  0  0  0
    1.9814   -1.4651    1.3877 H   0  0  0  0  0  0  0  0  0  0  0  0
    4.0579   -0.6463    0.3853 H   0  0  0  0  0  0  0  0  0  0  0  0
    3.1124   -1.4880   -0.8585 H   0  0  0  0  0  0  0  0  0  0  0  0
    3.3166    2.4801   -1.0814 H   0  0  0  0  0  0  0  0  0  0  0  0
  1  2  1  0  0  0  0
  1 11  1  0  0  0  0
  2  3  1  0  0  0  0
  2 14  1  0  0  0  0
  3  4  1  0  0  0  0
  3 17  1  0  0  0  0
  4 19  1  0  0  0  0
  4 18  1  0  0  0  0
  5  6  1  0  0  0  0
  5  4  1  0  0  0  0
  6 23  1  0  0  0  0
  6 22  1  0  0  0  0
  7 24  1  0  0  0  0
  7  6  1  0  0  0  0
  8 10  1  0  0  0  0
  8  7  1  0  0  0  0
  9  8  2  0  0  0  0
 12  1  1  0  0  0  0
 13  1  1  0  0  0  0
 15  2  1  0  0  0  0
 16  3  1  0  0  0  0
 20  5  1  0  0  0  0
 21  5  1  0  0  0  0
 25  7  1  0  0  0  0
 26 10  1  0  0  0  0
M  END
