208
 OpenBabel08181812023D

 18 17  0  0  0  0  0  0  0  0999 V2000
   -2.4349    0.2763   -0.0396 C   0  0  0  0  0  0  0  0  0  0  0  0
   -1.5276   -0.7742    0.6034 C   0  0  0  0  0  0  0  0  0  0  0  0
   -0.1402   -0.8956   -0.0406 C   0  0  0  0  0  0  0  0  0  0  0  0
    0.7463    0.3372    0.1461 C   0  0  0  0  0  0  0  0  0  0  0  0
    2.1460    0.1311   -0.4646 C   0  0  0  0  0  0  0  0  0  0  0  0
    3.0179    1.2862   -0.2903 C   0  0  0  0  0  0  0  0  0  0  0  0
    3.6925    2.2201   -0.1363 N   0  0  0  0  0  0  0  0  0  0  0  0
   -2.5774    0.0733   -1.1111 H   0  0  0  0  0  0  0  0  0  0  0  0
   -2.0258    1.2913    0.0553 H   0  0  0  0  0  0  0  0  0  0  0  0
   -3.4271    0.2806    0.4312 H   0  0  0  0  0  0  0  0  0  0  0  0
   -1.4078   -0.5535    1.6767 H   0  0  0  0  0  0  0  0  0  0  0  0
   -2.0216   -1.7564    0.5505 H   0  0  0  0  0  0  0  0  0  0  0  0
    0.3757   -1.7717    0.3856 H   0  0  0  0  0  0  0  0  0  0  0  0
   -0.2564   -1.1031   -1.1184 H   0  0  0  0  0  0  0  0  0  0  0  0
    0.8536    0.5622    1.2180 H   0  0  0  0  0  0  0  0  0  0  0  0
    0.2868    1.2222   -0.3156 H   0  0  0  0  0  0  0  0  0  0  0  0
    2.0645   -0.0821   -1.5420 H   0  0  0  0  0  0  0  0  0  0  0  0
    2.6355   -0.7438   -0.0084 H   0  0  0  0  0  0  0  0  0  0  0  0
  1  9  1  0  0  0  0
  1 10  1  0  0  0  0
  1  2  1  0  0  0  0
  2 11  1  0  0  0  0
  3  4  1  0  0  0  0
  3 13  1  0  0  0  0
  3  2  1  0  0  0  0
  4 15  1  0  0  0  0
  5  6  1  0  0  0  0
  5 18  1  0  0  0  0
  5  4  1  0  0  0  0
  6  7  3  0  0  0  0
  8  1  1  0  0  0  0
 12  2  1  0  0  0  0
 14  3  1  0  0  0  0
 16  4  1  0  0  0  0
 17  5  1  0  0  0  0
M  END
