041
 OpenBabel08181812023D

  5  4  0  0  0  0  0  0  0  0999 V2000
   -0.0000    0.0000    0.0000 C   0  0  0  0  0  0  0  0  0  0  0  0
   -1.1144   -1.3790   -0.1741 Cl  0  0  0  0  0  0  0  0  0  0  0  0
   -0.9081    1.5229   -0.1729 Cl  0  0  0  0  0  0  0  0  0  0  0  0
    1.2561   -0.0888   -1.2601 Cl  0  0  0  0  0  0  0  0  0  0  0  0
    0.7664   -0.0551    1.6072 Cl  0  0  0  0  0  0  0  0  0  0  0  0
  1  5  1  0  0  0  0
  2  1  1  0  0  0  0
  3  1  1  0  0  0  0
  4  1  1  0  0  0  0
M  END
