181
 OpenBabel08181812023D

  5  4  0  0  0  0  0  0  0  0999 V2000
   -0.1498   -0.0052    0.0061 C   0  0  0  0  0  0  0  0  0  0  0  0
    1.6380    0.0570   -0.0671 Cl  0  0  0  0  0  0  0  0  0  0  0  0
   -0.5130   -0.5659   -0.8592 H   0  0  0  0  0  0  0  0  0  0  0  0
   -0.4416   -0.5041    0.9341 H   0  0  0  0  0  0  0  0  0  0  0  0
   -0.5334    1.0183   -0.0139 H   0  0  0  0  0  0  0  0  0  0  0  0
  1  4  1  0  0  0  0
  2  1  1  0  0  0  0
  3  1  1  0  0  0  0
  5  1  1  0  0  0  0
M  END
