404
 OpenBabel08181812023D

 20 19  0  0  0  0  0  0  0  0999 V2000
   -2.4800    0.6579    0.7330 C   0  0  0  0  0  0  0  0  0  0  0  0
   -1.8448   -0.7289    0.6096 C   0  0  0  0  0  0  0  0  0  0  0  0
   -0.3150   -0.7160    0.4920 C   0  0  0  0  0  0  0  0  0  0  0  0
    0.1981   -0.0823   -0.8065 C   0  0  0  0  0  0  0  0  0  0  0  0
    1.7041   -0.2158   -1.0733 C   0  0  0  0  0  0  0  0  0  0  0  0
    2.6293    0.7021   -0.2880 C   0  0  0  0  0  0  0  0  0  0  0  0
    2.8911    0.2040    1.4355 Cl  0  0  0  0  0  0  0  0  0  0  0  0
   -2.0653    1.2056    1.5920 H   0  0  0  0  0  0  0  0  0  0  0  0
   -3.5665    0.5861    0.8780 H   0  0  0  0  0  0  0  0  0  0  0  0
   -2.3106    1.2701   -0.1635 H   0  0  0  0  0  0  0  0  0  0  0  0
   -2.2718   -1.2535   -0.2619 H   0  0  0  0  0  0  0  0  0  0  0  0
   -2.1228   -1.3290    1.4898 H   0  0  0  0  0  0  0  0  0  0  0  0
    0.1127   -0.1960    1.3620 H   0  0  0  0  0  0  0  0  0  0  0  0
    0.0572   -1.7520    0.5476 H   0  0  0  0  0  0  0  0  0  0  0  0
   -0.3336   -0.5529   -1.6507 H   0  0  0  0  0  0  0  0  0  0  0  0
   -0.0724    0.9857   -0.8418 H   0  0  0  0  0  0  0  0  0  0  0  0
    1.8876    0.0274   -2.1344 H   0  0  0  0  0  0  0  0  0  0  0  0
    2.0282   -1.2598   -0.9410 H   0  0  0  0  0  0  0  0  0  0  0  0
    2.2433    1.7280   -0.2486 H   0  0  0  0  0  0  0  0  0  0  0  0
    3.6312    0.7191   -0.7298 H   0  0  0  0  0  0  0  0  0  0  0  0
  1  9  1  0  0  0  0
  1  8  1  0  0  0  0
  2  1  1  0  0  0  0
  2 12  1  0  0  0  0
  3 14  1  0  0  0  0
  3  2  1  0  0  0  0
  3 13  1  0  0  0  0
  4  3  1  0  0  0  0
  5 18  1  0  0  0  0
  5  4  1  0  0  0  0
  5  6  1  0  0  0  0
  6 19  1  0  0  0  0
  6  7  1  0  0  0  0
 10  1  1  0  0  0  0
 11  2  1  0  0  0  0
 15  4  1  0  0  0  0
 16  4  1  0  0  0  0
 17  5  1  0  0  0  0
 20  6  1  0  0  0  0
M  END
