616
 OpenBabel08181812023D

 24 24  0  0  1  0  0  0  0  0999 V2000
    2.4628    1.0301    0.2857 C   0  0  0  0  0  0  0  0  0  0  0  0
    1.5734   -0.2010    0.0954 C   0  0  1  0  0  0  0  0  0  0  0  0
    0.5295   -0.3050    1.2301 C   0  0  0  0  0  0  0  0  0  0  0  0
   -0.6672   -1.1648    0.8177 C   0  0  0  0  0  0  0  0  0  0  0  0
   -1.4659   -0.5099   -0.3408 C   0  0  2  0  0  0  0  0  0  0  0  0
   -0.5400    0.3743   -1.2060 C   0  0  0  0  0  0  0  0  0  0  0  0
    0.8741   -0.2041   -1.2902 C   0  0  0  0  0  0  0  0  0  0  0  0
   -2.6630    0.2948    0.1715 C   0  0  0  0  0  0  0  0  0  0  0  0
    1.8750    1.9564    0.1912 H   0  0  0  0  0  0  0  0  0  0  0  0
    2.9284    1.0362    1.2822 H   0  0  0  0  0  0  0  0  0  0  0  0
    3.2670    1.0660   -0.4628 H   0  0  0  0  0  0  0  0  0  0  0  0
    2.2175   -1.0947    0.1490 H   0  0  0  0  0  0  0  0  0  0  0  0
    1.0051   -0.7027    2.1386 H   0  0  0  0  0  0  0  0  0  0  0  0
    0.1768    0.7068    1.4938 H   0  0  0  0  0  0  0  0  0  0  0  0
   -0.3008   -2.1565    0.5076 H   0  0  0  0  0  0  0  0  0  0  0  0
   -1.3336   -1.3417    1.6755 H   0  0  0  0  0  0  0  0  0  0  0  0
   -1.8526   -1.3193   -0.9823 H   0  0  0  0  0  0  0  0  0  0  0  0
   -0.9744    0.4989   -2.2088 H   0  0  0  0  0  0  0  0  0  0  0  0
   -0.4934    1.3872   -0.7708 H   0  0  0  0  0  0  0  0  0  0  0  0
    0.8133   -1.2336   -1.6781 H   0  0  0  0  0  0  0  0  0  0  0  0
    1.4822    0.3582   -2.0149 H   0  0  0  0  0  0  0  0  0  0  0  0
   -3.3763   -0.3435    0.7119 H   0  0  0  0  0  0  0  0  0  0  0  0
   -3.2024    0.7787   -0.6559 H   0  0  0  0  0  0  0  0  0  0  0  0
   -2.3353    1.0891    0.8601 H   0  0  0  0  0  0  0  0  0  0  0  0
  1 10  1  0  0  0  0
  2 12  1  1  0  0  0
  2  1  1  0  0  0  0
  2  3  1  0  0  0  0
  3 14  1  0  0  0  0
  3 13  1  0  0  0  0
  4  3  1  0  0  0  0
  4 16  1  0  0  0  0
  5 17  1  6  0  0  0
  5  8  1  0  0  0  0
  5  4  1  0  0  0  0
  6 19  1  0  0  0  0
  6  5  1  0  0  0  0
  7  6  1  0  0  0  0
  7  2  1  0  0  0  0
  8 22  1  0  0  0  0
  8 24  1  0  0  0  0
  9  1  1  0  0  0  0
 11  1  1  0  0  0  0
 15  4  1  0  0  0  0
 18  6  1  0  0  0  0
 20  7  1  0  0  0  0
 21  7  1  0  0  0  0
 23  8  1  0  0  0  0
M  END
