631
 OpenBabel08181812023D

 24 24  0  0  1  0  0  0  0  0999 V2000
    2.6401   -0.7699    0.0719 C   0  0  0  0  0  0  0  0  0  0  0  0
    1.2934   -0.1738   -0.3383 C   0  0  2  0  0  0  0  0  0  0  0  0
    1.1252    1.2699    0.1935 C   0  0  0  0  0  0  0  0  0  0  0  0
   -0.3539    1.6782    0.3554 C   0  0  0  0  0  0  0  0  0  0  0  0
   -1.2322    0.9819   -0.6867 C   0  0  0  0  0  0  0  0  0  0  0  0
   -1.2293   -0.5571   -0.4934 C   0  0  1  0  0  0  0  0  0  0  0  0
    0.1083   -1.0325    0.1182 C   0  0  0  0  0  0  0  0  0  0  0  0
   -2.4142   -1.0290    0.3539 C   0  0  0  0  0  0  0  0  0  0  0  0
    2.7939   -1.7627   -0.3750 H   0  0  0  0  0  0  0  0  0  0  0  0
    2.7001   -0.8813    1.1655 H   0  0  0  0  0  0  0  0  0  0  0  0
    3.4754   -0.1269   -0.2419 H   0  0  0  0  0  0  0  0  0  0  0  0
    1.2664   -0.1390   -1.4421 H   0  0  0  0  0  0  0  0  0  0  0  0
    1.6372    1.9671   -0.4878 H   0  0  0  0  0  0  0  0  0  0  0  0
    1.6392    1.3584    1.1646 H   0  0  0  0  0  0  0  0  0  0  0  0
   -0.4575    2.7703    0.2848 H   0  0  0  0  0  0  0  0  0  0  0  0
   -0.7087    1.4073    1.3626 H   0  0  0  0  0  0  0  0  0  0  0  0
   -0.8591    1.2344   -1.6921 H   0  0  0  0  0  0  0  0  0  0  0  0
   -2.2650    1.3597   -0.6415 H   0  0  0  0  0  0  0  0  0  0  0  0
   -1.3238   -1.0197   -1.4901 H   0  0  0  0  0  0  0  0  0  0  0  0
    0.2764   -2.0905   -0.1358 H   0  0  0  0  0  0  0  0  0  0  0  0
    0.0477   -0.9924    1.2206 H   0  0  0  0  0  0  0  0  0  0  0  0
   -2.4028   -0.5507    1.3455 H   0  0  0  0  0  0  0  0  0  0  0  0
   -2.3836   -2.1168    0.5134 H   0  0  0  0  0  0  0  0  0  0  0  0
   -3.3732   -0.7850   -0.1249 H   0  0  0  0  0  0  0  0  0  0  0  0
  1 10  1  0  0  0  0
  2 12  1  6  0  0  0
  2  1  1  0  0  0  0
  2  7  1  0  0  0  0
  2  3  1  0  0  0  0
  3  4  1  0  0  0  0
  3 14  1  0  0  0  0
  4 16  1  0  0  0  0
  5 18  1  0  0  0  0
  5  6  1  0  0  0  0
  5  4  1  0  0  0  0
  6 19  1  6  0  0  0
  6  7  1  0  0  0  0
  6  8  1  0  0  0  0
  7 21  1  0  0  0  0
  8 23  1  0  0  0  0
  8 22  1  0  0  0  0
  9  1  1  0  0  0  0
 11  1  1  0  0  0  0
 13  3  1  0  0  0  0
 15  4  1  0  0  0  0
 17  5  1  0  0  0  0
 20  7  1  0  0  0  0
 24  8  1  0  0  0  0
M  END
