316
 OpenBabel08181812023D

 13 12  0  0  0  0  0  0  0  0999 V2000
   -1.4529    0.1477   -0.8364 C   0  0  0  0  0  0  0  0  0  0  0  0
   -0.9891    0.7358    0.4577 C   0  0  0  0  0  0  0  0  0  0  0  0
    0.1541    0.4664    1.1211 C   0  0  0  0  0  0  0  0  0  0  0  0
    1.2356   -0.4391    0.7416 C   0  0  0  0  0  0  0  0  0  0  0  0
    1.6736   -0.7263   -0.4962 C   0  0  0  0  0  0  0  0  0  0  0  0
   -1.2473    0.8239   -1.6827 H   0  0  0  0  0  0  0  0  0  0  0  0
   -0.9565   -0.8066   -1.0553 H   0  0  0  0  0  0  0  0  0  0  0  0
   -2.5403   -0.0105   -0.8232 H   0  0  0  0  0  0  0  0  0  0  0  0
   -1.6749    1.4445    0.9299 H   0  0  0  0  0  0  0  0  0  0  0  0
    0.2812    0.9468    2.0955 H   0  0  0  0  0  0  0  0  0  0  0  0
    1.7614   -0.9035    1.5829 H   0  0  0  0  0  0  0  0  0  0  0  0
    1.2559   -0.2580   -1.3863 H   0  0  0  0  0  0  0  0  0  0  0  0
    2.4993   -1.4210   -0.6486 H   0  0  0  0  0  0  0  0  0  0  0  0
  1  8  1  0  0  0  0
  1  2  1  0  0  0  0
  2  9  1  0  0  0  0
  2  3  2  0  0  0  0
  3 10  1  0  0  0  0
  4  3  1  0  0  0  0
  4 11  1  0  0  0  0
  5  4  2  0  0  0  0
  6  1  1  0  0  0  0
  7  1  1  0  0  0  0
 12  5  1  0  0  0  0
 13  5  1  0  0  0  0
M  END
