120
 OpenBabel08181812023D

  9  9  0  0  0  0  0  0  0  0999 V2000
   -0.1159    0.8555   -0.1134 C   0  0  0  0  0  0  0  0  0  0  0  0
    0.8043   -0.3234    0.0815 C   0  0  0  0  0  0  0  0  0  0  0  0
   -0.6885   -0.5321    0.0319 C   0  0  0  0  0  0  0  0  0  0  0  0
   -0.2406    1.5502    0.7154 H   0  0  0  0  0  0  0  0  0  0  0  0
   -0.1485    1.3225   -1.0963 H   0  0  0  0  0  0  0  0  0  0  0  0
    1.3044   -0.4291    1.0427 H   0  0  0  0  0  0  0  0  0  0  0  0
    1.3964   -0.6568   -0.7690 H   0  0  0  0  0  0  0  0  0  0  0  0
   -1.1099   -1.0073   -0.8523 H   0  0  0  0  0  0  0  0  0  0  0  0
   -1.2019   -0.7796    0.9594 H   0  0  0  0  0  0  0  0  0  0  0  0
  1  3  1  0  0  0  0
  1  2  1  0  0  0  0
  1  4  1  0  0  0  0
  2  6  1  0  0  0  0
  3  2  1  0  0  0  0
  3  9  1  0  0  0  0
  5  1  1  0  0  0  0
  7  2  1  0  0  0  0
  8  3  1  0  0  0  0
M  END
