279
 OpenBabel08181812023D

 17 17  0  0  0  0  0  0  0  0999 V2000
    1.4586    0.4973    0.4251 C   0  0  0  0  0  0  0  0  0  0  0  0
    1.3123   -0.9512   -0.1372 C   0  0  0  0  0  0  0  0  0  0  0  0
   -0.1603   -1.0897   -0.5662 C   0  0  0  0  0  0  0  0  0  0  0  0
   -0.9144   -0.0555    0.2801 C   0  0  0  0  0  0  0  0  0  0  0  0
    0.0643    1.1378    0.2856 C   0  0  0  0  0  0  0  0  0  0  0  0
   -2.2776    0.1698   -0.1980 N   0  0  0  0  0  0  0  0  0  0  0  0
    1.7649    0.4673    1.4797 H   0  0  0  0  0  0  0  0  0  0  0  0
    2.2286    1.0722   -0.1052 H   0  0  0  0  0  0  0  0  0  0  0  0
    2.0001   -1.1420   -0.9707 H   0  0  0  0  0  0  0  0  0  0  0  0
    1.5550   -1.6875    0.6410 H   0  0  0  0  0  0  0  0  0  0  0  0
   -0.5606   -2.1039   -0.4454 H   0  0  0  0  0  0  0  0  0  0  0  0
   -0.2810   -0.8193   -1.6291 H   0  0  0  0  0  0  0  0  0  0  0  0
   -0.9980   -0.4428    1.3108 H   0  0  0  0  0  0  0  0  0  0  0  0
   -0.1588    1.8690    1.0753 H   0  0  0  0  0  0  0  0  0  0  0  0
   -0.0286    1.6625   -0.6800 H   0  0  0  0  0  0  0  0  0  0  0  0
   -2.2541    0.5509   -1.1466 H   0  0  0  0  0  0  0  0  0  0  0  0
   -2.7507    0.8648    0.3808 H   0  0  0  0  0  0  0  0  0  0  0  0
  1  7  1  0  0  0  0
  2  1  1  0  0  0  0
  2 10  1  0  0  0  0
  3 11  1  0  0  0  0
  3  2  1  0  0  0  0
  3  4  1  0  0  0  0
  4  5  1  0  0  0  0
  4 13  1  0  0  0  0
  5  1  1  0  0  0  0
  5 14  1  0  0  0  0
  6  4  1  0  0  0  0
  6 17  1  0  0  0  0
  8  1  1  0  0  0  0
  9  2  1  0  0  0  0
 12  3  1  0  0  0  0
 15  5  1  0  0  0  0
 16  6  1  0  0  0  0
M  END
