266
 OpenBabel08181812023D

 24 24  0  0  0  0  0  0  0  0999 V2000
    0.0744    1.7986   -0.1615 C   0  0  0  0  0  0  0  0  0  0  0  0
    1.3967    1.1187    0.2548 C   0  0  0  0  0  0  0  0  0  0  0  0
    1.7751   -0.2050   -0.4349 C   0  0  0  0  0  0  0  0  0  0  0  0
    1.2802   -1.5091    0.2127 C   0  0  0  0  0  0  0  0  0  0  0  0
   -0.2227   -1.6003    0.5247 C   0  0  0  0  0  0  0  0  0  0  0  0
   -1.1398   -1.1013   -0.6114 C   0  0  0  0  0  0  0  0  0  0  0  0
   -1.9686    0.1443   -0.2564 C   0  0  0  0  0  0  0  0  0  0  0  0
   -1.2317    1.2822    0.4697 C   0  0  0  0  0  0  0  0  0  0  0  0
   -0.0095    1.7840   -1.2619 H   0  0  0  0  0  0  0  0  0  0  0  0
    0.1694    2.8612    0.1101 H   0  0  0  0  0  0  0  0  0  0  0  0
    2.2007    1.8391    0.0401 H   0  0  0  0  0  0  0  0  0  0  0  0
    1.4066    0.9867    1.3506 H   0  0  0  0  0  0  0  0  0  0  0  0
    2.8735   -0.2711   -0.4811 H   0  0  0  0  0  0  0  0  0  0  0  0
    1.4492   -0.1582   -1.4869 H   0  0  0  0  0  0  0  0  0  0  0  0
    1.8418   -1.6764    1.1462 H   0  0  0  0  0  0  0  0  0  0  0  0
    1.5598   -2.3399   -0.4561 H   0  0  0  0  0  0  0  0  0  0  0  0
   -0.4583   -2.6446    0.7758 H   0  0  0  0  0  0  0  0  0  0  0  0
   -0.4336   -1.0298    1.4414 H   0  0  0  0  0  0  0  0  0  0  0  0
   -0.5323   -0.8853   -1.5028 H   0  0  0  0  0  0  0  0  0  0  0  0
   -1.8322   -1.8971   -0.9217 H   0  0  0  0  0  0  0  0  0  0  0  0
   -2.4129    0.5442   -1.1824 H   0  0  0  0  0  0  0  0  0  0  0  0
   -2.8196   -0.1580    0.3760 H   0  0  0  0  0  0  0  0  0  0  0  0
   -1.0269    0.9941    1.5137 H   0  0  0  0  0  0  0  0  0  0  0  0
   -1.9393    2.1231    0.5413 H   0  0  0  0  0  0  0  0  0  0  0  0
  1 10  1  0  0  0  0
  1  2  1  0  0  0  0
  1  8  1  0  0  0  0
  2 12  1  0  0  0  0
  3  4  1  0  0  0  0
  3  2  1  0  0  0  0
  4  5  1  0  0  0  0
  4 15  1  0  0  0  0
  5 17  1  0  0  0  0
  5 18  1  0  0  0  0
  6  7  1  0  0  0  0
  6  5  1  0  0  0  0
  7 22  1  0  0  0  0
  7  8  1  0  0  0  0
  8 24  1  0  0  0  0
  8 23  1  0  0  0  0
  9  1  1  0  0  0  0
 11  2  1  0  0  0  0
 13  3  1  0  0  0  0
 14  3  1  0  0  0  0
 16  4  1  0  0  0  0
 19  6  1  0  0  0  0
 20  6  1  0  0  0  0
 21  7  1  0  0  0  0
M  END
