251
 OpenBabel08181812023D

 17 17  0  0  0  0  0  0  0  0999 V2000
   -0.4255   -1.0364    0.8287 C   0  0  0  0  0  0  0  0  0  0  0  0
   -1.4252   -0.2453   -0.0186 C   0  0  0  0  0  0  0  0  0  0  0  0
   -0.9262    1.1859   -0.2955 C   0  0  0  0  0  0  0  0  0  0  0  0
    0.4817    1.1939   -0.8697 C   0  0  0  0  0  0  0  0  0  0  0  0
    0.7791    1.8315   -1.8660 O   0  0  0  0  0  0  0  0  0  0  0  0
    1.4903    0.3430   -0.1139 C   0  0  0  0  0  0  0  0  0  0  0  0
    0.9544   -1.0741    0.1670 C   0  0  0  0  0  0  0  0  0  0  0  0
   -0.7943   -2.0603    0.9893 H   0  0  0  0  0  0  0  0  0  0  0  0
   -0.3426   -0.5734    1.8269 H   0  0  0  0  0  0  0  0  0  0  0  0
   -2.4073   -0.2048    0.4742 H   0  0  0  0  0  0  0  0  0  0  0  0
   -1.5791   -0.7631   -0.9793 H   0  0  0  0  0  0  0  0  0  0  0  0
   -1.5872    1.7324   -0.9794 H   0  0  0  0  0  0  0  0  0  0  0  0
   -0.8937    1.7432    0.6575 H   0  0  0  0  0  0  0  0  0  0  0  0
    2.4298    0.3274   -0.6800 H   0  0  0  0  0  0  0  0  0  0  0  0
    1.6867    0.8482    0.8484 H   0  0  0  0  0  0  0  0  0  0  0  0
    0.8871   -1.6265   -0.7843 H   0  0  0  0  0  0  0  0  0  0  0  0
    1.6720   -1.6218    0.7949 H   0  0  0  0  0  0  0  0  0  0  0  0
  1  8  1  0  0  0  0
  1  9  1  0  0  0  0
  2 10  1  0  0  0  0
  2  1  1  0  0  0  0
  3  2  1  0  0  0  0
  3 13  1  0  0  0  0
  4  3  1  0  0  0  0
  4  6  1  0  0  0  0
  5  4  2  0  0  0  0
  6  7  1  0  0  0  0
  6 15  1  0  0  0  0
  7 17  1  0  0  0  0
  7  1  1  0  0  0  0
 11  2  1  0  0  0  0
 12  3  1  0  0  0  0
 14  6  1  0  0  0  0
 16  7  1  0  0  0  0
M  END
