591
 OpenBabel08181812023D

 13 13  0  0  0  0  0  0  0  0999 V2000
   -0.4759   -1.0004   -0.2172 C   0  0  0  0  0  0  0  0  0  0  0  0
    1.0471   -0.6797   -0.1954 C   0  0  0  0  0  0  0  0  0  0  0  0
    1.1079    0.7858    0.1451 C   0  0  0  0  0  0  0  0  0  0  0  0
   -0.1035    1.3255    0.3134 C   0  0  0  0  0  0  0  0  0  0  0  0
   -1.2145    0.3280    0.1189 C   0  0  0  0  0  0  0  0  0  0  0  0
   -0.7820   -1.3810   -1.1993 H   0  0  0  0  0  0  0  0  0  0  0  0
   -0.7223   -1.7810    0.5129 H   0  0  0  0  0  0  0  0  0  0  0  0
    1.5301   -0.8880   -1.1637 H   0  0  0  0  0  0  0  0  0  0  0  0
    1.5896   -1.2877    0.5466 H   0  0  0  0  0  0  0  0  0  0  0  0
    2.0487    1.3288    0.2393 H   0  0  0  0  0  0  0  0  0  0  0  0
   -0.2889    2.3704    0.5640 H   0  0  0  0  0  0  0  0  0  0  0  0
   -1.8980    0.6394   -0.6875 H   0  0  0  0  0  0  0  0  0  0  0  0
   -1.8386    0.2398    1.0228 H   0  0  0  0  0  0  0  0  0  0  0  0
  1  2  1  0  0  0  0
  1  5  1  0  0  0  0
  1  7  1  0  0  0  0
  2  3  1  0  0  0  0
  2  9  1  0  0  0  0
  3 10  1  0  0  0  0
  3  4  2  0  0  0  0
  4 11  1  0  0  0  0
  5  4  1  0  0  0  0
  5 13  1  0  0  0  0
  6  1  1  0  0  0  0
  8  2  1  0  0  0  0
 12  5  1  0  0  0  0
M  END
