377
 OpenBabel08181812023D

 16 16  0  0  0  0  0  0  0  0999 V2000
   -1.2646   -0.5873    0.1489 C   0  0  0  0  0  0  0  0  0  0  0  0
   -0.9242    0.8806    0.4640 C   0  0  0  0  0  0  0  0  0  0  0  0
    0.3226    1.1349   -0.3929 C   0  0  0  0  0  0  0  0  0  0  0  0
    1.1588   -0.1439   -0.2117 C   0  0  0  0  0  0  0  0  0  0  0  0
    0.1049   -1.2779   -0.0819 C   0  0  0  0  0  0  0  0  0  0  0  0
    2.0311   -0.0668    0.9289 O   0  0  0  0  0  0  0  0  0  0  0  0
   -1.8682   -0.6301   -0.7695 H   0  0  0  0  0  0  0  0  0  0  0  0
   -1.8554   -1.0681    0.9391 H   0  0  0  0  0  0  0  0  0  0  0  0
   -0.6842    1.0024    1.5339 H   0  0  0  0  0  0  0  0  0  0  0  0
   -1.7505    1.5702    0.2485 H   0  0  0  0  0  0  0  0  0  0  0  0
    0.0275    1.2308   -1.4503 H   0  0  0  0  0  0  0  0  0  0  0  0
    0.8939    2.0315   -0.1209 H   0  0  0  0  0  0  0  0  0  0  0  0
    1.8440   -0.3115   -1.0522 H   0  0  0  0  0  0  0  0  0  0  0  0
    0.3913   -1.9298    0.7546 H   0  0  0  0  0  0  0  0  0  0  0  0
    0.0913   -1.9107   -0.9792 H   0  0  0  0  0  0  0  0  0  0  0  0
    1.4816    0.0756    1.7163 H   0  0  0  0  0  0  0  0  0  0  0  0
  1  2  1  0  0  0  0
  1  8  1  0  0  0  0
  2  9  1  0  0  0  0
  3  4  1  0  0  0  0
  3 12  1  0  0  0  0
  3  2  1  0  0  0  0
  4  5  1  0  0  0  0
  4  6  1  0  0  0  0
  5  1  1  0  0  0  0
  5 14  1  0  0  0  0
  6 16  1  0  0  0  0
  7  1  1  0  0  0  0
 10  2  1  0  0  0  0
 11  3  1  0  0  0  0
 13  4  1  0  0  0  0
 15  5  1  0  0  0  0
M  END
