128
 OpenBabel08181812023D

  8  7  0  0  0  0  0  0  0  0999 V2000
    0.7823    0.1143   -0.0599 C   0  0  0  0  0  0  0  0  0  0  0  0
   -0.7711   -0.1827   -0.0263 C   0  0  0  0  0  0  0  0  0  0  0  0
   -0.9499   -1.4484   -0.4828 F   0  0  0  0  0  0  0  0  0  0  0  0
   -1.4201   -0.0646    1.6180 Cl  0  0  0  0  0  0  0  0  0  0  0  0
   -1.6205    0.9308   -1.1212 Cl  0  0  0  0  0  0  0  0  0  0  0  0
    1.1884   -0.0071   -1.3493 F   0  0  0  0  0  0  0  0  0  0  0  0
    1.6474   -1.0956    0.9139 Cl  0  0  0  0  0  0  0  0  0  0  0  0
    1.1436    1.7533    0.5078 Cl  0  0  0  0  0  0  0  0  0  0  0  0
  1  2  1  0  0  0  0
  1  8  1  0  0  0  0
  1  7  1  0  0  0  0
  2  4  1  0  0  0  0
  3  2  1  0  0  0  0
  5  2  1  0  0  0  0
  6  1  1  0  0  0  0
M  END
