189
 OpenBabel08181812023D

  5  4  0  0  0  0  0  0  0  0999 V2000
   -0.0065   -0.1823    0.0008 C   0  0  0  0  0  0  0  0  0  0  0  0
   -1.5987    0.9336   -0.0200 Br  0  0  0  0  0  0  0  0  0  0  0  0
    1.6611    0.8176    0.0130 Br  0  0  0  0  0  0  0  0  0  0  0  0
   -0.0370   -0.7805    0.9107 H   0  0  0  0  0  0  0  0  0  0  0  0
   -0.0189   -0.7885   -0.9043 H   0  0  0  0  0  0  0  0  0  0  0  0
  1  3  1  0  0  0  0
  1  4  1  0  0  0  0
  2  1  1  0  0  0  0
  5  1  1  0  0  0  0
M  END
