190
 OpenBabel08181812023D

  5  4  0  0  0  0  0  0  0  0999 V2000
   -0.0059    0.0524    0.1150 C   0  0  0  0  0  0  0  0  0  0  0  0
   -0.1942    1.6814   -0.5277 Cl  0  0  0  0  0  0  0  0  0  0  0  0
   -1.4978   -1.1023   -0.3932 Br  0  0  0  0  0  0  0  0  0  0  0  0
    1.7082   -0.7333   -0.3971 Br  0  0  0  0  0  0  0  0  0  0  0  0
   -0.0103    0.1019    1.2029 H   0  0  0  0  0  0  0  0  0  0  0  0
  1  5  1  0  0  0  0
  2  1  1  0  0  0  0
  3  1  1  0  0  0  0
  4  1  1  0  0  0  0
M  END
