278
 OpenBabel08181812023D

 28 27  0  0  0  0  0  0  0  0999 V2000
   -3.8556    0.3804   -1.0162 C   0  0  0  0  0  0  0  0  0  0  0  0
   -2.8787    0.1029    0.1267 C   0  0  0  0  0  0  0  0  0  0  0  0
   -1.8788    1.2384    0.3502 C   0  0  0  0  0  0  0  0  0  0  0  0
   -0.9040    1.0013    1.5187 C   0  0  0  0  0  0  0  0  0  0  0  0
    0.0125   -0.1331    1.4208 N   0  0  0  0  0  0  0  0  0  0  0  0
    0.9482   -0.0925    0.3019 C   0  0  0  0  0  0  0  0  0  0  0  0
    1.9337   -1.2586    0.3725 C   0  0  0  0  0  0  0  0  0  0  0  0
    2.9030   -1.3337   -0.8127 C   0  0  0  0  0  0  0  0  0  0  0  0
    3.8679   -0.1497   -0.9102 C   0  0  0  0  0  0  0  0  0  0  0  0
   -3.3223    0.5252   -1.9669 H   0  0  0  0  0  0  0  0  0  0  0  0
   -4.5649   -0.4467   -1.1553 H   0  0  0  0  0  0  0  0  0  0  0  0
   -4.4395    1.2923   -0.8252 H   0  0  0  0  0  0  0  0  0  0  0  0
   -2.3354   -0.8338   -0.0811 H   0  0  0  0  0  0  0  0  0  0  0  0
   -3.4406   -0.0725    1.0595 H   0  0  0  0  0  0  0  0  0  0  0  0
   -1.3138    1.4187   -0.5792 H   0  0  0  0  0  0  0  0  0  0  0  0
   -2.4298    2.1726    0.5520 H   0  0  0  0  0  0  0  0  0  0  0  0
   -0.2905    1.9062    1.6597 H   0  0  0  0  0  0  0  0  0  0  0  0
   -1.4841    0.8738    2.4473 H   0  0  0  0  0  0  0  0  0  0  0  0
   -0.5067   -1.0116    1.4102 H   0  0  0  0  0  0  0  0  0  0  0  0
    1.4888    0.8659    0.3669 H   0  0  0  0  0  0  0  0  0  0  0  0
    0.4568   -0.1029   -0.6957 H   0  0  0  0  0  0  0  0  0  0  0  0
    2.4953   -1.1908    1.3177 H   0  0  0  0  0  0  0  0  0  0  0  0
    1.3588   -2.1990    0.4235 H   0  0  0  0  0  0  0  0  0  0  0  0
    3.4837   -2.2654   -0.7322 H   0  0  0  0  0  0  0  0  0  0  0  0
    2.3270   -1.4171   -1.7493 H   0  0  0  0  0  0  0  0  0  0  0  0
    4.4460   -0.0346    0.0186 H   0  0  0  0  0  0  0  0  0  0  0  0
    4.5832   -0.2859   -1.7326 H   0  0  0  0  0  0  0  0  0  0  0  0
    3.3398    0.7967   -1.0900 H   0  0  0  0  0  0  0  0  0  0  0  0
  1 12  1  0  0  0  0
  1  2  1  0  0  0  0
  2  3  1  0  0  0  0
  2 14  1  0  0  0  0
  3 16  1  0  0  0  0
  3  4  1  0  0  0  0
  4 17  1  0  0  0  0
  4 18  1  0  0  0  0
  5  4  1  0  0  0  0
  6 20  1  0  0  0  0
  6  7  1  0  0  0  0
  6  5  1  0  0  0  0
  7 23  1  0  0  0  0
  7 22  1  0  0  0  0
  8 24  1  0  0  0  0
  8  7  1  0  0  0  0
  9  8  1  0  0  0  0
  9 26  1  0  0  0  0
 10  1  1  0  0  0  0
 11  1  1  0  0  0  0
 13  2  1  0  0  0  0
 15  3  1  0  0  0  0
 19  5  1  0  0  0  0
 21  6  1  0  0  0  0
 25  8  1  0  0  0  0
 27  9  1  0  0  0  0
 28  9  1  0  0  0  0
M  END
