050
 OpenBabel08181812023D

 27 26  0  0  0  0  0  0  0  0999 V2000
    4.9663   -0.0499   -0.0205 C   0  0  0  0  0  0  0  0  0  0  0  0
    3.6682    0.6819    0.3207 C   0  0  0  0  0  0  0  0  0  0  0  0
    2.4190   -0.1375   -0.0105 C   0  0  0  0  0  0  0  0  0  0  0  0
    1.1301    0.5921    0.3305 C   0  0  0  0  0  0  0  0  0  0  0  0
    0.0224   -0.2322   -0.0055 O   0  0  0  0  0  0  0  0  0  0  0  0
   -1.2242    0.3853    0.2845 C   0  0  0  0  0  0  0  0  0  0  0  0
   -2.3521   -0.5571   -0.1026 C   0  0  0  0  0  0  0  0  0  0  0  0
   -3.7370    0.0310    0.1759 C   0  0  0  0  0  0  0  0  0  0  0  0
   -4.8732   -0.9150   -0.2129 C   0  0  0  0  0  0  0  0  0  0  0  0
    5.8481    0.5568    0.2255 H   0  0  0  0  0  0  0  0  0  0  0  0
    5.0156   -0.2916   -1.0918 H   0  0  0  0  0  0  0  0  0  0  0  0
    5.0463   -0.9955    0.5346 H   0  0  0  0  0  0  0  0  0  0  0  0
    3.6631    0.9407    1.3921 H   0  0  0  0  0  0  0  0  0  0  0  0
    3.6327    1.6399   -0.2232 H   0  0  0  0  0  0  0  0  0  0  0  0
    2.4409   -1.0929    0.5370 H   0  0  0  0  0  0  0  0  0  0  0  0
    2.4099   -0.3911   -1.0822 H   0  0  0  0  0  0  0  0  0  0  0  0
    1.0712    1.5509   -0.2245 H   0  0  0  0  0  0  0  0  0  0  0  0
    1.1026    0.8422    1.4110 H   0  0  0  0  0  0  0  0  0  0  0  0
   -1.2824    0.6335    1.3642 H   0  0  0  0  0  0  0  0  0  0  0  0
   -1.3123    1.3411   -0.2717 H   0  0  0  0  0  0  0  0  0  0  0  0
   -2.2284   -1.5029    0.4481 H   0  0  0  0  0  0  0  0  0  0  0  0
   -2.2570   -0.8030   -1.1720 H   0  0  0  0  0  0  0  0  0  0  0  0
   -3.8477    0.9820   -0.3702 H   0  0  0  0  0  0  0  0  0  0  0  0
   -3.8193    0.2837    1.2455 H   0  0  0  0  0  0  0  0  0  0  0  0
   -5.8562   -0.4722   -0.0040 H   0  0  0  0  0  0  0  0  0  0  0  0
   -4.8377   -1.1584   -1.2845 H   0  0  0  0  0  0  0  0  0  0  0  0
   -4.8088   -1.8618    0.3422 H   0  0  0  0  0  0  0  0  0  0  0  0
  1 10  1  0  0  0  0
  1  2  1  0  0  0  0
  1 12  1  0  0  0  0
  2 13  1  0  0  0  0
  3  2  1  0  0  0  0
  3  4  1  0  0  0  0
  3 15  1  0  0  0  0
  4 18  1  0  0  0  0
  5  6  1  0  0  0  0
  5  4  1  0  0  0  0
  6 19  1  0  0  0  0
  7  8  1  0  0  0  0
  7  6  1  0  0  0  0
  7 21  1  0  0  0  0
  8 24  1  0  0  0  0
  9 25  1  0  0  0  0
  9  8  1  0  0  0  0
  9 27  1  0  0  0  0
 11  1  1  0  0  0  0
 14  2  1  0  0  0  0
 16  3  1  0  0  0  0
 17  4  1  0  0  0  0
 20  6  1  0  0  0  0
 22  7  1  0  0  0  0
 23  8  1  0  0  0  0
 26  9  1  0  0  0  0
M  END
