270
 OpenBabel08181812023D

  5  4  0  0  0  0  0  0  0  0999 V2000
   -0.0018   -0.0832    0.0033 C   0  0  0  0  0  0  0  0  0  0  0  0
   -0.0767   -0.9153   -1.0509 F   0  0  0  0  0  0  0  0  0  0  0  0
    0.0389   -0.8314    1.1203 F   0  0  0  0  0  0  0  0  0  0  0  0
    1.4863    0.8801   -0.1132 Cl  0  0  0  0  0  0  0  0  0  0  0  0
   -1.4467    0.9497    0.0404 Cl  0  0  0  0  0  0  0  0  0  0  0  0
  1  5  1  0  0  0  0
  1  3  1  0  0  0  0
  2  1  1  0  0  0  0
  4  1  1  0  0  0  0
M  END
