597
 OpenBabel08181812023D

  5  4  0  0  0  0  0  0  0  0999 V2000
   -0.0071    0.0987    0.0710 C   0  0  0  0  0  0  0  0  0  0  0  0
   -0.0719    1.1939   -0.7305 F   0  0  0  0  0  0  0  0  0  0  0  0
    1.5253   -0.7541   -0.2168 Cl  0  0  0  0  0  0  0  0  0  0  0  0
   -1.4092   -0.9472   -0.2432 Cl  0  0  0  0  0  0  0  0  0  0  0  0
   -0.0370    0.4088    1.1196 H   0  0  0  0  0  0  0  0  0  0  0  0
  1  5  1  0  0  0  0
  2  1  1  0  0  0  0
  3  1  1  0  0  0  0
  4  1  1  0  0  0  0
M  END
