039
 OpenBabel08181812023D

  5  4  0  0  0  0  0  0  0  0999 V2000
   -0.0047   -0.1478    0.0024 C   0  0  0  0  0  0  0  0  0  0  0  0
   -1.4577    0.8791   -0.0356 Cl  0  0  0  0  0  0  0  0  0  0  0  0
    1.5103    0.7859    0.0086 Cl  0  0  0  0  0  0  0  0  0  0  0  0
   -0.0110   -0.7737   -0.8919 H   0  0  0  0  0  0  0  0  0  0  0  0
   -0.0370   -0.7435    0.9165 H   0  0  0  0  0  0  0  0  0  0  0  0
  1  3  1  0  0  0  0
  1  5  1  0  0  0  0
  2  1  1  0  0  0  0
  4  1  1  0  0  0  0
M  END
