501
 OpenBabel08181812023D

 30 30  0  0  0  0  0  0  0  0999 V2000
   -4.6518    0.5313    0.0318 C   0  0  0  0  0  0  0  0  0  0  0  0
   -3.5845    0.4767    1.1090 C   0  0  0  0  0  0  0  0  0  0  0  0
   -2.5250   -0.4585    0.7624 O   0  0  0  0  0  0  0  0  0  0  0  0
   -1.5123    0.0499    0.0161 C   0  0  0  0  0  0  0  0  0  0  0  0
   -1.4483    1.2002   -0.3689 O   0  0  0  0  0  0  0  0  0  0  0  0
   -0.5065   -1.0065   -0.3263 C   0  0  0  0  0  0  0  0  0  0  0  0
   -0.9434   -2.2606   -0.7651 C   0  0  0  0  0  0  0  0  0  0  0  0
   -0.0310   -3.2086   -1.2294 C   0  0  0  0  0  0  0  0  0  0  0  0
    1.3302   -2.9075   -1.2575 C   0  0  0  0  0  0  0  0  0  0  0  0
    1.7765   -1.6628   -0.8125 C   0  0  0  0  0  0  0  0  0  0  0  0
    0.8704   -0.7096   -0.3366 C   0  0  0  0  0  0  0  0  0  0  0  0
    1.3848    0.5553    0.2808 C   0  0  0  0  0  0  0  0  0  0  0  0
    0.9976    1.0003    1.3427 O   0  0  0  0  0  0  0  0  0  0  0  0
    2.3727    1.1020   -0.4713 O   0  0  0  0  0  0  0  0  0  0  0  0
    2.9769    2.3130    0.0637 C   0  0  0  0  0  0  0  0  0  0  0  0
    4.1272    1.9922    0.9996 C   0  0  0  0  0  0  0  0  0  0  0  0
   -5.4656    1.1957    0.3539 H   0  0  0  0  0  0  0  0  0  0  0  0
   -4.2429    0.9243   -0.9064 H   0  0  0  0  0  0  0  0  0  0  0  0
   -5.0774   -0.4635   -0.1522 H   0  0  0  0  0  0  0  0  0  0  0  0
   -3.1353    1.4631    1.2793 H   0  0  0  0  0  0  0  0  0  0  0  0
   -3.9833    0.0880    2.0536 H   0  0  0  0  0  0  0  0  0  0  0  0
   -2.0097   -2.4810   -0.7560 H   0  0  0  0  0  0  0  0  0  0  0  0
   -0.3854   -4.1795   -1.5751 H   0  0  0  0  0  0  0  0  0  0  0  0
    2.0474   -3.6437   -1.6202 H   0  0  0  0  0  0  0  0  0  0  0  0
    2.8394   -1.4259   -0.8151 H   0  0  0  0  0  0  0  0  0  0  0  0
    2.1972    2.8955    0.5703 H   0  0  0  0  0  0  0  0  0  0  0  0
    3.3187    2.8546   -0.8263 H   0  0  0  0  0  0  0  0  0  0  0  0
    4.6000    2.9257    1.3352 H   0  0  0  0  0  0  0  0  0  0  0  0
    4.8903    1.3872    0.4934 H   0  0  0  0  0  0  0  0  0  0  0  0
    3.7730    1.4526    1.8859 H   0  0  0  0  0  0  0  0  0  0  0  0
  1 17  1  0  0  0  0
  1  2  1  0  0  0  0
  2 20  1  0  0  0  0
  2 21  1  0  0  0  0
  3  2  1  0  0  0  0
  4  3  1  0  0  0  0
  5  4  2  0  0  0  0
  6  4  1  0  0  0  0
  7 22  1  0  0  0  0
  7  6  2  0  0  0  0
  8  7  1  0  0  0  0
  9  8  2  0  0  0  0
  9 10  1  0  0  0  0
 10 11  2  0  0  0  0
 11  6  1  0  0  0  0
 11 12  1  0  0  0  0
 12 13  2  0  0  0  0
 14 15  1  0  0  0  0
 14 12  1  0  0  0  0
 15 26  1  0  0  0  0
 15 16  1  0  0  0  0
 16 28  1  0  0  0  0
 16 30  1  0  0  0  0
 18  1  1  0  0  0  0
 19  1  1  0  0  0  0
 23  8  1  0  0  0  0
 24  9  1  0  0  0  0
 25 10  1  0  0  0  0
 27 15  1  0  0  0  0
 29 16  1  0  0  0  0
M  END
