047
 OpenBabel08181812023D

 15 14  0  0  0  0  0  0  0  0999 V2000
   -2.3824   -0.3868    0.6296 C   0  0  0  0  0  0  0  0  0  0  0  0
   -1.1845    0.4275    0.1818 C   0  0  0  0  0  0  0  0  0  0  0  0
    0.0022   -0.2966    0.4825 O   0  0  0  0  0  0  0  0  0  0  0  0
    1.1784    0.4013    0.0917 C   0  0  0  0  0  0  0  0  0  0  0  0
    2.3886   -0.4396    0.4480 C   0  0  0  0  0  0  0  0  0  0  0  0
   -2.3412   -0.5762    1.7100 H   0  0  0  0  0  0  0  0  0  0  0  0
   -3.3131    0.1521    0.4077 H   0  0  0  0  0  0  0  0  0  0  0  0
   -2.4103   -1.3538    0.1111 H   0  0  0  0  0  0  0  0  0  0  0  0
   -1.1654    1.4098    0.6948 H   0  0  0  0  0  0  0  0  0  0  0  0
   -1.2348    0.6310   -0.9065 H   0  0  0  0  0  0  0  0  0  0  0  0
    1.1502    0.6044   -0.9975 H   0  0  0  0  0  0  0  0  0  0  0  0
    1.2201    1.3834    0.6038 H   0  0  0  0  0  0  0  0  0  0  0  0
    2.4253   -0.6289    1.5286 H   0  0  0  0  0  0  0  0  0  0  0  0
    2.3556   -1.4066   -0.0702 H   0  0  0  0  0  0  0  0  0  0  0  0
    3.3114    0.0788    0.1557 H   0  0  0  0  0  0  0  0  0  0  0  0
  1  6  1  0  0  0  0
  2  3  1  0  0  0  0
  2  1  1  0  0  0  0
  2  9  1  0  0  0  0
  4  5  1  0  0  0  0
  4  3  1  0  0  0  0
  4 12  1  0  0  0  0
  5 13  1  0  0  0  0
  7  1  1  0  0  0  0
  8  1  1  0  0  0  0
 10  2  1  0  0  0  0
 11  4  1  0  0  0  0
 14  5  1  0  0  0  0
 15  5  1  0  0  0  0
M  END
