439
 OpenBabel08181812023D

 15 14  0  0  0  0  0  0  0  0999 V2000
   -2.6993    0.1789    0.4491 C   0  0  0  0  0  0  0  0  0  0  0  0
   -1.4062    0.0534   -0.3487 C   0  0  0  0  0  0  0  0  0  0  0  0
    0.0256    0.0511    0.7813 S   0  0  0  0  0  0  0  0  0  0  0  0
    1.3807   -0.1049   -0.4295 C   0  0  0  0  0  0  0  0  0  0  0  0
    2.7236   -0.1299    0.2919 C   0  0  0  0  0  0  0  0  0  0  0  0
   -2.8164   -0.6588    1.1492 H   0  0  0  0  0  0  0  0  0  0  0  0
   -3.5652    0.1806   -0.2270 H   0  0  0  0  0  0  0  0  0  0  0  0
   -2.7189    1.1112    1.0289 H   0  0  0  0  0  0  0  0  0  0  0  0
   -1.3974   -0.8801   -0.9306 H   0  0  0  0  0  0  0  0  0  0  0  0
   -1.2996    0.8934   -1.0509 H   0  0  0  0  0  0  0  0  0  0  0  0
    1.2325   -1.0292   -1.0072 H   0  0  0  0  0  0  0  0  0  0  0  0
    1.3298    0.7443   -1.1269 H   0  0  0  0  0  0  0  0  0  0  0  0
    2.8823    0.7921    0.8668 H   0  0  0  0  0  0  0  0  0  0  0  0
    2.7850   -0.9780    0.9867 H   0  0  0  0  0  0  0  0  0  0  0  0
    3.5436   -0.2240   -0.4330 H   0  0  0  0  0  0  0  0  0  0  0  0
  1  8  1  0  0  0  0
  1  6  1  0  0  0  0
  2  1  1  0  0  0  0
  2  3  1  0  0  0  0
  4  5  1  0  0  0  0
  4  3  1  0  0  0  0
  5 13  1  0  0  0  0
  5 14  1  0  0  0  0
  7  1  1  0  0  0  0
  9  2  1  0  0  0  0
 10  2  1  0  0  0  0
 11  4  1  0  0  0  0
 12  4  1  0  0  0  0
 15  5  1  0  0  0  0
M  END
