077
 OpenBabel08181812023D

 16 15  0  0  0  0  0  0  0  0999 V2000
    2.1690   -0.0376   -0.1588 C   0  0  0  0  0  0  0  0  0  0  0  0
    1.0736   -1.0420    0.2259 C   0  0  0  0  0  0  0  0  0  0  0  0
   -0.2121   -0.4891    0.6491 N   0  0  0  0  0  0  0  0  0  0  0  0
   -0.9396    0.2623   -0.3707 C   0  0  0  0  0  0  0  0  0  0  0  0
   -2.2970    0.7159    0.1539 C   0  0  0  0  0  0  0  0  0  0  0  0
    3.0956   -0.5624   -0.4334 H   0  0  0  0  0  0  0  0  0  0  0  0
    2.4014    0.6321    0.6823 H   0  0  0  0  0  0  0  0  0  0  0  0
    1.8752    0.5840   -1.0152 H   0  0  0  0  0  0  0  0  0  0  0  0
    0.8758   -1.7136   -0.6255 H   0  0  0  0  0  0  0  0  0  0  0  0
    1.4409   -1.6833    1.0420 H   0  0  0  0  0  0  0  0  0  0  0  0
   -0.0847    0.0918    1.4797 H   0  0  0  0  0  0  0  0  0  0  0  0
   -1.0808   -0.4106   -1.2327 H   0  0  0  0  0  0  0  0  0  0  0  0
   -0.3860    1.1449   -0.7536 H   0  0  0  0  0  0  0  0  0  0  0  0
   -2.8979   -0.1449    0.4749 H   0  0  0  0  0  0  0  0  0  0  0  0
   -2.1817    1.3882    1.0172 H   0  0  0  0  0  0  0  0  0  0  0  0
   -2.8516    1.2643   -0.6194 H   0  0  0  0  0  0  0  0  0  0  0  0
  1  2  1  0  0  0  0
  1  7  1  0  0  0  0
  2  3  1  0  0  0  0
  2 10  1  0  0  0  0
  3 11  1  0  0  0  0
  4  5  1  0  0  0  0
  4  3  1  0  0  0  0
  5 14  1  0  0  0  0
  5 15  1  0  0  0  0
  6  1  1  0  0  0  0
  8  1  1  0  0  0  0
  9  2  1  0  0  0  0
 12  4  1  0  0  0  0
 13  4  1  0  0  0  0
 16  5  1  0  0  0  0
M  END
