595
 OpenBabel08181812023D

  5  4  0  0  0  0  0  0  0  0999 V2000
   -0.0034   -0.0789    0.0013 C   0  0  0  0  0  0  0  0  0  0  0  0
    1.1418    0.6735    0.0484 F   0  0  0  0  0  0  0  0  0  0  0  0
   -1.0806    0.7661   -0.0722 F   0  0  0  0  0  0  0  0  0  0  0  0
   -0.0781   -0.6631    0.9303 H   0  0  0  0  0  0  0  0  0  0  0  0
    0.0202   -0.6977   -0.9078 H   0  0  0  0  0  0  0  0  0  0  0  0
  1  2  1  0  0  0  0
  1  4  1  0  0  0  0
  3  1  1  0  0  0  0
  5  1  1  0  0  0  0
M  END
