423
 OpenBabel08181812023D

  5  4  0  0  0  0  0  0  0  0999 V2000
   -0.0008   -0.2151    0.0022 C   0  0  0  0  0  0  0  0  0  0  0  0
    1.8273    0.9218   -0.0194 I   0  0  0  0  0  0  0  0  0  0  0  0
   -1.8202    0.9359    0.0008 I   0  0  0  0  0  0  0  0  0  0  0  0
   -0.0082   -0.8303   -0.8967 H   0  0  0  0  0  0  0  0  0  0  0  0
    0.0019   -0.8123    0.9131 H   0  0  0  0  0  0  0  0  0  0  0  0
  1  5  1  0  0  0  0
  2  1  1  0  0  0  0
  3  1  1  0  0  0  0
  4  1  1  0  0  0  0
M  END
