191
 OpenBabel08181812023D

 27 26  0  0  0  0  0  0  0  0999 V2000
    2.4646    0.7119   -1.2475 C   0  0  0  0  0  0  0  0  0  0  0  0
    2.4447   -0.1053    0.0469 C   0  0  0  0  0  0  0  0  0  0  0  0
    3.6235    0.2546    0.9562 C   0  0  0  0  0  0  0  0  0  0  0  0
    1.1337    0.0774    0.8072 C   0  0  0  0  0  0  0  0  0  0  0  0
    0.0434   -0.3632    0.0104 O   0  0  0  0  0  0  0  0  0  0  0  0
   -1.2067   -0.2060    0.6664 C   0  0  0  0  0  0  0  0  0  0  0  0
   -2.3372   -0.6843   -0.2410 C   0  0  0  0  0  0  0  0  0  0  0  0
   -3.6668   -0.6299    0.5176 C   0  0  0  0  0  0  0  0  0  0  0  0
   -2.3984    0.1245   -1.5394 C   0  0  0  0  0  0  0  0  0  0  0  0
    2.4028    1.7892   -1.0281 H   0  0  0  0  0  0  0  0  0  0  0  0
    3.3942    0.5379   -1.8072 H   0  0  0  0  0  0  0  0  0  0  0  0
    1.6190    0.4497   -1.8951 H   0  0  0  0  0  0  0  0  0  0  0  0
    2.5181   -1.1745   -0.2149 H   0  0  0  0  0  0  0  0  0  0  0  0
    3.5807    1.3128    1.2562 H   0  0  0  0  0  0  0  0  0  0  0  0
    4.5790    0.0974    0.4381 H   0  0  0  0  0  0  0  0  0  0  0  0
    3.6329   -0.3543    1.8714 H   0  0  0  0  0  0  0  0  0  0  0  0
    1.1620   -0.4958    1.7560 H   0  0  0  0  0  0  0  0  0  0  0  0
    0.9999    1.1469    1.0748 H   0  0  0  0  0  0  0  0  0  0  0  0
   -1.3637    0.8606    0.9328 H   0  0  0  0  0  0  0  0  0  0  0  0
   -1.2098   -0.7832    1.6133 H   0  0  0  0  0  0  0  0  0  0  0  0
   -2.1219   -1.7359   -0.4954 H   0  0  0  0  0  0  0  0  0  0  0  0
   -4.4890   -1.0029   -0.1077 H   0  0  0  0  0  0  0  0  0  0  0  0
   -3.9137    0.4032    0.8061 H   0  0  0  0  0  0  0  0  0  0  0  0
   -3.6384   -1.2372    1.4334 H   0  0  0  0  0  0  0  0  0  0  0  0
   -2.6216    1.1820   -1.3285 H   0  0  0  0  0  0  0  0  0  0  0  0
   -3.1869   -0.2574   -2.2028 H   0  0  0  0  0  0  0  0  0  0  0  0
   -1.4443    0.0814   -2.0788 H   0  0  0  0  0  0  0  0  0  0  0  0
  1 10  1  0  0  0  0
  1  2  1  0  0  0  0
  2  4  1  0  0  0  0
  2  3  1  0  0  0  0
  3 14  1  0  0  0  0
  3 16  1  0  0  0  0
  4 18  1  0  0  0  0
  4 17  1  0  0  0  0
  5  6  1  0  0  0  0
  5  4  1  0  0  0  0
  6 19  1  0  0  0  0
  6 20  1  0  0  0  0
  7  8  1  0  0  0  0
  7  6  1  0  0  0  0
  8 23  1  0  0  0  0
  8 24  1  0  0  0  0
  9 25  1  0  0  0  0
  9  7  1  0  0  0  0
 11  1  1  0  0  0  0
 12  1  1  0  0  0  0
 13  2  1  0  0  0  0
 15  3  1  0  0  0  0
 21  7  1  0  0  0  0
 22  8  1  0  0  0  0
 26  9  1  0  0  0  0
 27  9  1  0  0  0  0
M  END
