076
 OpenBabel08181812023D

 10  9  0  0  0  0  0  0  0  0999 V2000
    1.2092    0.1453   -0.0499 C   0  0  0  0  0  0  0  0  0  0  0  0
    0.0253   -0.4442    0.5609 N   0  0  0  0  0  0  0  0  0  0  0  0
   -1.1945   -0.1600   -0.1830 C   0  0  0  0  0  0  0  0  0  0  0  0
    1.1322    1.2394   -0.2260 H   0  0  0  0  0  0  0  0  0  0  0  0
    1.3927   -0.3318   -1.0239 H   0  0  0  0  0  0  0  0  0  0  0  0
    2.0870   -0.0422    0.5821 H   0  0  0  0  0  0  0  0  0  0  0  0
   -0.0708   -0.1041    1.5168 H   0  0  0  0  0  0  0  0  0  0  0  0
   -1.3741    0.9212   -0.3646 H   0  0  0  0  0  0  0  0  0  0  0  0
   -2.0611   -0.5693    0.3522 H   0  0  0  0  0  0  0  0  0  0  0  0
   -1.1462   -0.6541   -1.1647 H   0  0  0  0  0  0  0  0  0  0  0  0
  1  2  1  0  0  0  0
  1  6  1  0  0  0  0
  2  7  1  0  0  0  0
  3  9  1  0  0  0  0
  3  2  1  0  0  0  0
  4  1  1  0  0  0  0
  5  1  1  0  0  0  0
  8  3  1  0  0  0  0
 10  3  1  0  0  0  0
M  END
