117
 OpenBabel08181812023D

 12 11  0  0  0  0  0  0  0  0999 V2000
   -1.1155   -0.8429    0.1244 C   0  0  0  0  0  0  0  0  0  0  0  0
   -0.0317    0.1150   -0.0694 N   0  0  0  0  0  0  0  0  0  0  0  0
    1.3100   -0.1360    0.4452 C   0  0  0  0  0  0  0  0  0  0  0  0
   -0.2505    1.2770   -0.7424 C   0  0  0  0  0  0  0  0  0  0  0  0
    0.6011    2.1340   -0.9493 O   0  0  0  0  0  0  0  0  0  0  0  0
   -0.7351   -1.7026    0.6844 H   0  0  0  0  0  0  0  0  0  0  0  0
   -1.9461   -0.4080    0.6993 H   0  0  0  0  0  0  0  0  0  0  0  0
   -1.5088   -1.2130   -0.8337 H   0  0  0  0  0  0  0  0  0  0  0  0
    1.3253   -1.1030    0.9574 H   0  0  0  0  0  0  0  0  0  0  0  0
    1.6109    0.6525    1.1490 H   0  0  0  0  0  0  0  0  0  0  0  0
    2.0448   -0.1461   -0.3718 H   0  0  0  0  0  0  0  0  0  0  0  0
   -1.3043    1.3731   -1.0933 H   0  0  0  0  0  0  0  0  0  0  0  0
  1  6  1  0  0  0  0
  1  7  1  0  0  0  0
  2  1  1  0  0  0  0
  2  3  1  0  0  0  0
  3  9  1  0  0  0  0
  3 10  1  0  0  0  0
  4  2  1  0  0  0  0
  5  4  2  0  0  0  0
  8  1  1  0  0  0  0
 11  3  1  0  0  0  0
 12  4  1  0  0  0  0
M  END
