500
 OpenBabel08181812023D

 24 24  0  0  0  0  0  0  0  0999 V2000
    2.4760   -2.4300    0.1726 C   0  0  0  0  0  0  0  0  0  0  0  0
    1.7083   -1.2188    0.3248 O   0  0  0  0  0  0  0  0  0  0  0  0
    1.6812   -0.4240   -0.7712 C   0  0  0  0  0  0  0  0  0  0  0  0
    2.3425   -0.6131   -1.7722 O   0  0  0  0  0  0  0  0  0  0  0  0
    0.8054    0.7748   -0.5603 C   0  0  0  0  0  0  0  0  0  0  0  0
    1.3640    2.0232   -0.8516 C   0  0  0  0  0  0  0  0  0  0  0  0
    0.6370    3.1940   -0.6430 C   0  0  0  0  0  0  0  0  0  0  0  0
   -0.6633    3.1249   -0.1416 C   0  0  0  0  0  0  0  0  0  0  0  0
   -1.2360    1.8851    0.1355 C   0  0  0  0  0  0  0  0  0  0  0  0
   -0.5172    0.7009   -0.0784 C   0  0  0  0  0  0  0  0  0  0  0  0
   -1.2040   -0.6187    0.0647 C   0  0  0  0  0  0  0  0  0  0  0  0
   -0.9887   -1.5915   -0.6315 O   0  0  0  0  0  0  0  0  0  0  0  0
   -2.1457   -0.5898    1.0447 O   0  0  0  0  0  0  0  0  0  0  0  0
   -2.9061   -1.8072    1.1826 C   0  0  0  0  0  0  0  0  0  0  0  0
    2.4445   -2.9209    1.1491 H   0  0  0  0  0  0  0  0  0  0  0  0
    3.5086   -2.2001   -0.1153 H   0  0  0  0  0  0  0  0  0  0  0  0
    2.0198   -3.0672   -0.5950 H   0  0  0  0  0  0  0  0  0  0  0  0
    2.3812    2.0609   -1.2400 H   0  0  0  0  0  0  0  0  0  0  0  0
    1.0859    4.1609   -0.8698 H   0  0  0  0  0  0  0  0  0  0  0  0
   -1.2374    4.0369    0.0206 H   0  0  0  0  0  0  0  0  0  0  0  0
   -2.2593    1.8215    0.5008 H   0  0  0  0  0  0  0  0  0  0  0  0
   -3.4967   -1.9943    0.2772 H   0  0  0  0  0  0  0  0  0  0  0  0
   -3.5605   -1.6470    2.0436 H   0  0  0  0  0  0  0  0  0  0  0  0
   -2.2395   -2.6604    1.3536 H   0  0  0  0  0  0  0  0  0  0  0  0
  1  2  1  0  0  0  0
  1 15  1  0  0  0  0
  3  5  1  0  0  0  0
  3  2  1  0  0  0  0
  4  3  2  0  0  0  0
  5 10  2  0  0  0  0
  6  7  2  0  0  0  0
  6  5  1  0  0  0  0
  7  8  1  0  0  0  0
  8 20  1  0  0  0  0
  8  9  2  0  0  0  0
  9 21  1  0  0  0  0
 10 11  1  0  0  0  0
 10  9  1  0  0  0  0
 11 13  1  0  0  0  0
 12 11  2  0  0  0  0
 13 14  1  0  0  0  0
 14 24  1  0  0  0  0
 14 23  1  0  0  0  0
 16  1  1  0  0  0  0
 17  1  1  0  0  0  0
 18  6  1  0  0  0  0
 19  7  1  0  0  0  0
 22 14  1  0  0  0  0
M  END
