258
 OpenBabel08181812023D

  9  8  0  0  0  0  0  0  0  0999 V2000
    1.3545   -0.1595    0.2290 C   0  0  0  0  0  0  0  0  0  0  0  0
    0.0782   -0.7690   -0.9019 S   0  0  0  0  0  0  0  0  0  0  0  0
   -1.3520    0.1355   -0.2571 C   0  0  0  0  0  0  0  0  0  0  0  0
    2.2946   -0.6426   -0.0616 H   0  0  0  0  0  0  0  0  0  0  0  0
    1.1259   -0.4274    1.2689 H   0  0  0  0  0  0  0  0  0  0  0  0
    1.4751    0.9285    0.1441 H   0  0  0  0  0  0  0  0  0  0  0  0
   -1.2060    1.2207   -0.3373 H   0  0  0  0  0  0  0  0  0  0  0  0
   -1.5566   -0.1352    0.7871 H   0  0  0  0  0  0  0  0  0  0  0  0
   -2.2135   -0.1511   -0.8714 H   0  0  0  0  0  0  0  0  0  0  0  0
  1  5  1  0  0  0  0
  2  3  1  0  0  0  0
  2  1  1  0  0  0  0
  3  8  1  0  0  0  0
  4  1  1  0  0  0  0
  6  1  1  0  0  0  0
  7  3  1  0  0  0  0
  9  3  1  0  0  0  0
M  END
