192
 OpenBabel08181812023D

 33 32  0  0  0  0  0  0  0  0999 V2000
    5.8502   -0.2139    0.1710 C   0  0  0  0  0  0  0  0  0  0  0  0
    4.3965   -0.6181   -0.0751 C   0  0  0  0  0  0  0  0  0  0  0  0
    3.4698    0.5873   -0.2702 C   0  0  0  0  0  0  0  0  0  0  0  0
    2.0140    0.2358   -0.6066 C   0  0  0  0  0  0  0  0  0  0  0  0
    1.2641   -0.4281    0.5508 C   0  0  0  0  0  0  0  0  0  0  0  0
   -0.0780   -0.7935    0.2385 O   0  0  0  0  0  0  0  0  0  0  0  0
   -0.9986    0.2921    0.2563 C   0  0  0  0  0  0  0  0  0  0  0  0
   -2.3982   -0.2528    0.0197 C   0  0  0  0  0  0  0  0  0  0  0  0
   -3.4686    0.8409    0.0643 C   0  0  0  0  0  0  0  0  0  0  0  0
   -4.8854    0.3484   -0.2594 C   0  0  0  0  0  0  0  0  0  0  0  0
   -5.4577   -0.6395    0.7587 C   0  0  0  0  0  0  0  0  0  0  0  0
    5.9428    0.4059    1.0747 H   0  0  0  0  0  0  0  0  0  0  0  0
    6.2477    0.3710   -0.6712 H   0  0  0  0  0  0  0  0  0  0  0  0
    6.4975   -1.0915    0.3026 H   0  0  0  0  0  0  0  0  0  0  0  0
    4.0450   -1.2343    0.7668 H   0  0  0  0  0  0  0  0  0  0  0  0
    4.3379   -1.2623   -0.9680 H   0  0  0  0  0  0  0  0  0  0  0  0
    3.4958    1.2169    0.6365 H   0  0  0  0  0  0  0  0  0  0  0  0
    3.8774    1.2143   -1.0798 H   0  0  0  0  0  0  0  0  0  0  0  0
    1.4851    1.1550   -0.9006 H   0  0  0  0  0  0  0  0  0  0  0  0
    1.9819   -0.4385   -1.4772 H   0  0  0  0  0  0  0  0  0  0  0  0
    1.7561   -1.3683    0.8358 H   0  0  0  0  0  0  0  0  0  0  0  0
    1.2781    0.2367    1.4382 H   0  0  0  0  0  0  0  0  0  0  0  0
   -0.9462    0.8096    1.2361 H   0  0  0  0  0  0  0  0  0  0  0  0
   -0.7496    1.0400   -0.5209 H   0  0  0  0  0  0  0  0  0  0  0  0
   -2.5993   -1.0262    0.7756 H   0  0  0  0  0  0  0  0  0  0  0  0
   -2.4198   -0.7568   -0.9599 H   0  0  0  0  0  0  0  0  0  0  0  0
   -3.4704    1.3129    1.0619 H   0  0  0  0  0  0  0  0  0  0  0  0
   -3.1990    1.6373   -0.6489 H   0  0  0  0  0  0  0  0  0  0  0  0
   -5.5535    1.2210   -0.3283 H   0  0  0  0  0  0  0  0  0  0  0  0
   -4.8852   -0.1131   -1.2608 H   0  0  0  0  0  0  0  0  0  0  0  0
   -5.4752   -0.2016    1.7677 H   0  0  0  0  0  0  0  0  0  0  0  0
   -6.4875   -0.9221    0.5021 H   0  0  0  0  0  0  0  0  0  0  0  0
   -4.8678   -1.5645    0.8092 H   0  0  0  0  0  0  0  0  0  0  0  0
  1 14  1  0  0  0  0
  1 12  1  0  0  0  0
  2  1  1  0  0  0  0
  2 15  1  0  0  0  0
  3  2  1  0  0  0  0
  3 17  1  0  0  0  0
  4  3  1  0  0  0  0
  4  5  1  0  0  0  0
  5 21  1  0  0  0  0
  5 22  1  0  0  0  0
  6  7  1  0  0  0  0
  6  5  1  0  0  0  0
  7 23  1  0  0  0  0
  8  9  1  0  0  0  0
  8  7  1  0  0  0  0
  8 25  1  0  0  0  0
  9 27  1  0  0  0  0
 10  9  1  0  0  0  0
 10 11  1  0  0  0  0
 11 33  1  0  0  0  0
 11 31  1  0  0  0  0
 13  1  1  0  0  0  0
 16  2  1  0  0  0  0
 18  3  1  0  0  0  0
 19  4  1  0  0  0  0
 20  4  1  0  0  0  0
 24  7  1  0  0  0  0
 26  8  1  0  0  0  0
 28  9  1  0  0  0  0
 29 10  1  0  0  0  0
 30 10  1  0  0  0  0
 32 11  1  0  0  0  0
M  END
