589
 OpenBabel08181812023D

 36 35  0  0  0  0  0  0  0  0999 V2000
    4.9935    1.6533    1.0548 C   0  0  0  0  0  0  0  0  0  0  0  0
    3.8318    0.6592    1.0442 C   0  0  0  0  0  0  0  0  0  0  0  0
    3.8350   -0.2462   -0.1911 C   0  0  0  0  0  0  0  0  0  0  0  0
    2.7304   -1.3100   -0.2159 C   0  0  0  0  0  0  0  0  0  0  0  0
    1.3081   -0.7607   -0.3642 C   0  0  0  0  0  0  0  0  0  0  0  0
    0.2516   -1.8656   -0.4626 C   0  0  0  0  0  0  0  0  0  0  0  0
   -1.1816   -1.3708   -0.6972 C   0  0  0  0  0  0  0  0  0  0  0  0
   -1.7854   -0.5929    0.4777 C   0  0  0  0  0  0  0  0  0  0  0  0
   -3.2651   -0.2314    0.3044 C   0  0  0  0  0  0  0  0  0  0  0  0
   -3.5495    0.7722   -0.8184 C   0  0  0  0  0  0  0  0  0  0  0  0
   -5.0068    1.1532   -0.9247 C   0  0  0  0  0  0  0  0  0  0  0  0
   -5.5198    2.0284   -1.7929 C   0  0  0  0  0  0  0  0  0  0  0  0
    4.9766    2.2881    1.9510 H   0  0  0  0  0  0  0  0  0  0  0  0
    5.9618    1.1323    1.0333 H   0  0  0  0  0  0  0  0  0  0  0  0
    4.9573    2.3154    0.1775 H   0  0  0  0  0  0  0  0  0  0  0  0
    3.8755    0.0305    1.9492 H   0  0  0  0  0  0  0  0  0  0  0  0
    2.8809    1.2109    1.1033 H   0  0  0  0  0  0  0  0  0  0  0  0
    3.7597    0.3781   -1.0984 H   0  0  0  0  0  0  0  0  0  0  0  0
    4.8144   -0.7490   -0.2530 H   0  0  0  0  0  0  0  0  0  0  0  0
    2.9257   -2.0058   -1.0485 H   0  0  0  0  0  0  0  0  0  0  0  0
    2.7912   -1.9171    0.7040 H   0  0  0  0  0  0  0  0  0  0  0  0
    1.2572   -0.1309   -1.2699 H   0  0  0  0  0  0  0  0  0  0  0  0
    1.0751   -0.0973    0.4826 H   0  0  0  0  0  0  0  0  0  0  0  0
    0.5309   -2.5451   -1.2847 H   0  0  0  0  0  0  0  0  0  0  0  0
    0.2785   -2.4768    0.4561 H   0  0  0  0  0  0  0  0  0  0  0  0
   -1.1992   -0.7519   -1.6092 H   0  0  0  0  0  0  0  0  0  0  0  0
   -1.8270   -2.2399   -0.9078 H   0  0  0  0  0  0  0  0  0  0  0  0
   -1.6747   -1.1995    1.3918 H   0  0  0  0  0  0  0  0  0  0  0  0
   -1.2101    0.3305    0.6551 H   0  0  0  0  0  0  0  0  0  0  0  0
   -3.6460    0.1850    1.2510 H   0  0  0  0  0  0  0  0  0  0  0  0
   -3.8463   -1.1514    0.1214 H   0  0  0  0  0  0  0  0  0  0  0  0
   -2.9437    1.6796   -0.6544 H   0  0  0  0  0  0  0  0  0  0  0  0
   -3.2136    0.3615   -1.7837 H   0  0  0  0  0  0  0  0  0  0  0  0
   -5.6856    0.6580   -0.2215 H   0  0  0  0  0  0  0  0  0  0  0  0
   -4.8947    2.5534   -2.5187 H   0  0  0  0  0  0  0  0  0  0  0  0
   -6.5860    2.2524   -1.8105 H   0  0  0  0  0  0  0  0  0  0  0  0
  1 13  1  0  0  0  0
  2  1  1  0  0  0  0
  2 17  1  0  0  0  0
  2 16  1  0  0  0  0
  3  2  1  0  0  0  0
  4  3  1  0  0  0  0
  4 21  1  0  0  0  0
  5  4  1  0  0  0  0
  5 23  1  0  0  0  0
  6  5  1  0  0  0  0
  6 25  1  0  0  0  0
  7  6  1  0  0  0  0
  7  8  1  0  0  0  0
  8 29  1  0  0  0  0
  8 28  1  0  0  0  0
  9  8  1  0  0  0  0
  9 30  1  0  0  0  0
 10 32  1  0  0  0  0
 10  9  1  0  0  0  0
 11 10  1  0  0  0  0
 11 34  1  0  0  0  0
 12 11  2  0  0  0  0
 14  1  1  0  0  0  0
 15  1  1  0  0  0  0
 18  3  1  0  0  0  0
 19  3  1  0  0  0  0
 20  4  1  0  0  0  0
 22  5  1  0  0  0  0
 24  6  1  0  0  0  0
 26  7  1  0  0  0  0
 27  7  1  0  0  0  0
 31  9  1  0  0  0  0
 33 10  1  0  0  0  0
 35 12  1  0  0  0  0
 36 12  1  0  0  0  0
M  END
