051
 OpenBabel08181812023D

 21 20  0  0  0  0  0  0  0  0999 V2000
    2.8889   -0.3943    0.1150 C   0  0  0  0  0  0  0  0  0  0  0  0
    1.4324   -0.7363   -0.1447 C   0  0  0  0  0  0  0  0  0  0  0  0
    0.6548    0.4089    0.1894 O   0  0  0  0  0  0  0  0  0  0  0  0
   -0.7841    0.3135    0.0409 C   0  0  0  0  0  0  0  0  0  0  0  0
   -1.3650   -0.7602    0.9717 C   0  0  0  0  0  0  0  0  0  0  0  0
   -1.1734    0.0397   -1.4186 C   0  0  0  0  0  0  0  0  0  0  0  0
   -1.2755    1.6984    0.4655 C   0  0  0  0  0  0  0  0  0  0  0  0
    3.5309   -1.2510   -0.1306 H   0  0  0  0  0  0  0  0  0  0  0  0
    3.2016    0.4609   -0.4981 H   0  0  0  0  0  0  0  0  0  0  0  0
    3.0441   -0.1347    1.1703 H   0  0  0  0  0  0  0  0  0  0  0  0
    1.1354   -1.6087    0.4654 H   0  0  0  0  0  0  0  0  0  0  0  0
    1.2940   -1.0122   -1.2063 H   0  0  0  0  0  0  0  0  0  0  0  0
   -1.0343   -0.5882    2.0048 H   0  0  0  0  0  0  0  0  0  0  0  0
   -2.4627   -0.7249    0.9516 H   0  0  0  0  0  0  0  0  0  0  0  0
   -1.0642   -1.7729    0.6721 H   0  0  0  0  0  0  0  0  0  0  0  0
   -0.7112    0.7824   -2.0827 H   0  0  0  0  0  0  0  0  0  0  0  0
   -0.8657   -0.9620   -1.7463 H   0  0  0  0  0  0  0  0  0  0  0  0
   -2.2635    0.1033   -1.5374 H   0  0  0  0  0  0  0  0  0  0  0  0
   -0.8447    2.4701   -0.1856 H   0  0  0  0  0  0  0  0  0  0  0  0
   -2.3699    1.7588    0.4056 H   0  0  0  0  0  0  0  0  0  0  0  0
   -0.9678    1.9094    1.4979 H   0  0  0  0  0  0  0  0  0  0  0  0
  1 10  1  0  0  0  0
  2  1  1  0  0  0  0
  2  3  1  0  0  0  0
  2 11  1  0  0  0  0
  4  3  1  0  0  0  0
  4  7  1  0  0  0  0
  4  5  1  0  0  0  0
  5 13  1  0  0  0  0
  6  4  1  0  0  0  0
  7 21  1  0  0  0  0
  8  1  1  0  0  0  0
  9  1  1  0  0  0  0
 12  2  1  0  0  0  0
 14  5  1  0  0  0  0
 15  5  1  0  0  0  0
 16  6  1  0  0  0  0
 17  6  1  0  0  0  0
 18  6  1  0  0  0  0
 19  7  1  0  0  0  0
 20  7  1  0  0  0  0
M  END
