092
 OpenBabel08181812023D

  9  8  0  0  0  0  0  0  0  0999 V2000
   -0.8965   -0.3285   -0.1991 C   0  0  0  0  0  0  0  0  0  0  0  0
    0.2790    0.6238   -0.0289 C   0  0  0  0  0  0  0  0  0  0  0  0
    1.5649    0.0355    1.1355 S   0  0  0  0  0  0  0  0  0  0  0  0
   -0.5680   -1.2924   -0.6108 H   0  0  0  0  0  0  0  0  0  0  0  0
   -1.3884   -0.5241    0.7620 H   0  0  0  0  0  0  0  0  0  0  0  0
   -1.6398    0.0969   -0.8903 H   0  0  0  0  0  0  0  0  0  0  0  0
    0.7531    0.8573   -0.9905 H   0  0  0  0  0  0  0  0  0  0  0  0
   -0.0478    1.5774    0.4075 H   0  0  0  0  0  0  0  0  0  0  0  0
    1.9434   -1.0458    0.4145 H   0  0  0  0  0  0  0  0  0  0  0  0
  1  2  1  0  0  0  0
  1  5  1  0  0  0  0
  2  8  1  0  0  0  0
  2  3  1  0  0  0  0
  4  1  1  0  0  0  0
  6  1  1  0  0  0  0
  7  2  1  0  0  0  0
  9  3  1  0  0  0  0
M  END
