044
 OpenBabel08181812023D

  8  7  0  0  0  0  0  0  0  0999 V2000
   -0.8260    0.0626   -0.0680 C   0  0  0  0  0  0  0  0  0  0  0  0
    0.6480   -0.2767   -0.0242 C   0  0  0  0  0  0  0  0  0  0  0  0
    1.8613    1.3989    0.6776 I   0  0  0  0  0  0  0  0  0  0  0  0
   -1.3886   -0.8137   -0.4275 H   0  0  0  0  0  0  0  0  0  0  0  0
   -1.0287    0.8982   -0.7487 H   0  0  0  0  0  0  0  0  0  0  0  0
   -1.2097    0.3280    0.9244 H   0  0  0  0  0  0  0  0  0  0  0  0
    0.8809   -1.0851    0.6742 H   0  0  0  0  0  0  0  0  0  0  0  0
    1.0628   -0.5122   -1.0080 H   0  0  0  0  0  0  0  0  0  0  0  0
  1  2  1  0  0  0  0
  1  6  1  0  0  0  0
  2  7  1  0  0  0  0
  2  3  1  0  0  0  0
  4  1  1  0  0  0  0
  5  1  1  0  0  0  0
  8  2  1  0  0  0  0
M  END
