572
 OpenBabel08181812023D

 22 22  0  0  0  0  0  0  0  0999 V2000
    3.5240   -0.4056   -0.7571 C   0  0  0  0  0  0  0  0  0  0  0  0
    2.7995   -0.5381    0.5690 C   0  0  0  0  0  0  0  0  0  0  0  0
    1.3687   -0.7210    0.3739 O   0  0  0  0  0  0  0  0  0  0  0  0
    0.6241    0.3985    0.2720 C   0  0  0  0  0  0  0  0  0  0  0  0
    1.1154    1.5326    0.3614 O   0  0  0  0  0  0  0  0  0  0  0  0
   -0.8056    0.1516    0.0527 C   0  0  0  0  0  0  0  0  0  0  0  0
   -1.3404   -1.1476   -0.0468 C   0  0  0  0  0  0  0  0  0  0  0  0
   -2.6958   -1.3464   -0.2584 C   0  0  0  0  0  0  0  0  0  0  0  0
   -3.5446   -0.2342   -0.3755 C   0  0  0  0  0  0  0  0  0  0  0  0
   -3.0465    1.0572   -0.2821 C   0  0  0  0  0  0  0  0  0  0  0  0
   -1.6745    1.2720   -0.0667 C   0  0  0  0  0  0  0  0  0  0  0  0
   -1.2312    2.5369    0.0184 O   0  0  0  0  0  0  0  0  0  0  0  0
    3.2119    0.5023   -1.2872 H   0  0  0  0  0  0  0  0  0  0  0  0
    4.6061   -0.3420   -0.5783 H   0  0  0  0  0  0  0  0  0  0  0  0
    3.3335   -1.2761   -1.3979 H   0  0  0  0  0  0  0  0  0  0  0  0
    2.9593    0.3410    1.2048 H   0  0  0  0  0  0  0  0  0  0  0  0
    3.1091   -1.4406    1.1094 H   0  0  0  0  0  0  0  0  0  0  0  0
   -0.6648   -1.9959    0.0464 H   0  0  0  0  0  0  0  0  0  0  0  0
   -3.0969   -2.3560   -0.3328 H   0  0  0  0  0  0  0  0  0  0  0  0
   -4.6121   -0.3824   -0.5424 H   0  0  0  0  0  0  0  0  0  0  0  0
   -3.6964    1.9266   -0.3723 H   0  0  0  0  0  0  0  0  0  0  0  0
   -0.2431    2.4675    0.1709 H   0  0  0  0  0  0  0  0  0  0  0  0
  1 14  1  0  0  0  0
  1  2  1  0  0  0  0
  2 17  1  0  0  0  0
  2 16  1  0  0  0  0
  3  2  1  0  0  0  0
  4  5  2  0  0  0  0
  4  3  1  0  0  0  0
  6  4  1  0  0  0  0
  7 18  1  0  0  0  0
  7  6  1  0  0  0  0
  8  7  2  0  0  0  0
  9 10  2  0  0  0  0
  9  8  1  0  0  0  0
 10 11  1  0  0  0  0
 11 12  1  0  0  0  0
 11  6  2  0  0  0  0
 12 22  1  0  0  0  0
 13  1  1  0  0  0  0
 15  1  1  0  0  0  0
 19  8  1  0  0  0  0
 20  9  1  0  0  0  0
 21 10  1  0  0  0  0
M  END
