031
 OpenBabel08181812023D

  6  5  0  0  0  0  0  0  0  0999 V2000
   -0.6645    0.0128   -0.0434 C   0  0  0  0  0  0  0  0  0  0  0  0
    0.6645   -0.0128    0.0434 C   0  0  0  0  0  0  0  0  0  0  0  0
   -1.1985    0.8911   -0.4080 H   0  0  0  0  0  0  0  0  0  0  0  0
   -1.2746   -0.8439    0.2454 H   0  0  0  0  0  0  0  0  0  0  0  0
    1.1985   -0.8911    0.4080 H   0  0  0  0  0  0  0  0  0  0  0  0
    1.2746    0.8439   -0.2454 H   0  0  0  0  0  0  0  0  0  0  0  0
  1  2  2  0  0  0  0
  1  4  1  0  0  0  0
  2  5  1  0  0  0  0
  3  1  1  0  0  0  0
  6  2  1  0  0  0  0
M  END
