045
 OpenBabel08181812023D

  8  7  0  0  0  0  0  0  0  0999 V2000
    0.7884    0.0454    0.0571 C   0  0  0  0  0  0  0  0  0  0  0  0
   -0.7006   -0.1001   -0.1028 C   0  0  0  0  0  0  0  0  0  0  0  0
   -1.2530    1.0820   -0.5575 F   0  0  0  0  0  0  0  0  0  0  0  0
   -1.2902   -0.3759    1.1161 F   0  0  0  0  0  0  0  0  0  0  0  0
    1.0051    0.8534    0.7658 H   0  0  0  0  0  0  0  0  0  0  0  0
    1.2451    0.2804   -0.9115 H   0  0  0  0  0  0  0  0  0  0  0  0
    1.2152   -0.8916    0.4338 H   0  0  0  0  0  0  0  0  0  0  0  0
   -1.0101   -0.8936   -0.8009 H   0  0  0  0  0  0  0  0  0  0  0  0
  1  7  1  0  0  0  0
  1  5  1  0  0  0  0
  2  1  1  0  0  0  0
  2  4  1  0  0  0  0
  3  2  1  0  0  0  0
  6  1  1  0  0  0  0
  8  2  1  0  0  0  0
M  END
