171
 OpenBabel08181812023D

 21 22  0  0  1  0  0  0  0  0999 V2000
   -1.0996    0.5574   -1.5396 C   0  0  0  0  0  0  0  0  0  0  0  0
   -0.8362   -0.8513   -1.5668 C   0  0  0  0  0  0  0  0  0  0  0  0
    0.5850   -1.0364   -1.5535 C   0  0  1  0  0  0  0  0  0  0  0  0
    1.2000    0.2577   -1.5185 C   0  0  0  0  0  0  0  0  0  0  0  0
    0.1589    1.2428   -1.5098 C   0  0  0  0  0  0  0  0  0  0  0  0
    0.1225    1.1722    1.7571 C   0  0  0  0  0  0  0  0  0  0  0  0
   -1.1373    0.4893    1.7269 C   0  0  2  0  0  0  0  0  0  0  0  0
   -0.8766   -0.9198    1.7007 C   0  0  0  0  0  0  0  0  0  0  0  0
    0.5441   -1.1078    1.7146 C   0  0  0  0  0  0  0  0  0  0  0  0
    1.1616    0.1850    1.7494 C   0  0  0  0  0  0  0  0  0  0  0  0
   -0.0173   -0.0013    0.0960 Fe  0  0  0  0  0  0  0  0  0  0  0  0
   -2.0804    1.0231   -1.5230 H   0  0  0  0  0  0  0  0  0  0  0  0
   -1.5824   -1.6401   -1.5754 H   0  0  0  0  0  0  0  0  0  0  0  0
    1.1043   -1.9901   -1.5498 H   0  0  0  0  0  0  0  0  0  0  0  0
    2.2670    0.4563   -1.4843 H   0  0  0  0  0  0  0  0  0  0  0  0
    0.2988    2.3187   -1.4672 H   0  0  0  0  0  0  0  0  0  0  0  0
    0.2647    2.2487    1.7635 H   0  0  0  0  0  0  0  0  0  0  0  0
   -2.1169    0.9573    1.7063 H   0  0  0  0  0  0  0  0  0  0  0  0
   -1.6238   -1.7066    1.6570 H   0  0  0  0  0  0  0  0  0  0  0  0
    1.0621   -2.0616    1.6836 H   0  0  0  0  0  0  0  0  0  0  0  0
    2.2293    0.3827    1.7492 H   0  0  0  0  0  0  0  0  0  0  0  0
  1 12  1  0  0  0  0
  1  5  1  0  0  0  0
  2  3  1  0  0  0  0
  2  1  2  0  0  0  0
  3 14  1  6  0  0  0
  3  4  1  0  0  0  0
  3 11  1  0  0  0  0
  4  5  2  0  0  0  0
  4 15  1  0  0  0  0
  5 16  1  0  0  0  0
  6 17  1  0  0  0  0
  7 18  1  6  0  0  0
  7  6  1  0  0  0  0
  8  9  1  0  0  0  0
  8  7  1  0  0  0  0
  9 10  2  0  0  0  0
 10  6  1  0  0  0  0
 11  7  1  0  0  0  0
 13  2  1  0  0  0  0
 19  8  1  0  0  0  0
 20  9  1  0  0  0  0
 21 10  1  0  0  0  0
M  RAD  2   6   2   8   2
M  END
