230
 OpenBabel08181812023D

 12 12  0  0  0  0  0  0  0  0999 V2000
   -1.2795    0.6161   -0.0005 C   0  0  0  0  0  0  0  0  0  0  0  0
   -1.1723   -0.7748    0.0657 C   0  0  0  0  0  0  0  0  0  0  0  0
    0.0816   -1.3897    0.0666 C   0  0  0  0  0  0  0  0  0  0  0  0
    1.2123   -0.5837    0.0002 C   0  0  0  0  0  0  0  0  0  0  0  0
    1.1374    0.8028   -0.0665 C   0  0  0  0  0  0  0  0  0  0  0  0
   -0.1252    1.3996   -0.0662 C   0  0  0  0  0  0  0  0  0  0  0  0
    2.4364   -1.1732    0.0008 F   0  0  0  0  0  0  0  0  0  0  0  0
   -2.2610    1.0887   -0.0008 H   0  0  0  0  0  0  0  0  0  0  0  0
   -2.0696   -1.3914    0.1174 H   0  0  0  0  0  0  0  0  0  0  0  0
    0.1910   -2.4718    0.1188 H   0  0  0  0  0  0  0  0  0  0  0  0
    2.0516    1.3920   -0.1175 H   0  0  0  0  0  0  0  0  0  0  0  0
   -0.2027    2.4856   -0.1181 H   0  0  0  0  0  0  0  0  0  0  0  0
  1  2  2  0  0  0  0
  2  3  1  0  0  0  0
  2  9  1  0  0  0  0
  3 10  1  0  0  0  0
  4  7  1  0  0  0  0
  4  3  2  0  0  0  0
  5  6  2  0  0  0  0
  5  4  1  0  0  0  0
  6  1  1  0  0  0  0
  8  1  1  0  0  0  0
 11  5  1  0  0  0  0
 12  6  1  0  0  0  0
M  END
