457
 OpenBabel08181812023D

  5  4  0  0  0  0  0  0  0  0999 V2000
    0.0023    0.0034    0.0677 C   0  0  0  0  0  0  0  0  0  0  0  0
    0.0489    0.0710    1.4162 F   0  0  0  0  0  0  0  0  0  0  0  0
   -1.2570   -1.1642   -0.3947 Cl  0  0  0  0  0  0  0  0  0  0  0  0
    1.5922   -0.5298   -0.5249 Cl  0  0  0  0  0  0  0  0  0  0  0  0
   -0.3865    1.6198   -0.5643 Cl  0  0  0  0  0  0  0  0  0  0  0  0
  1  2  1  0  0  0  0
  3  1  1  0  0  0  0
  4  1  1  0  0  0  0
  5  1  1  0  0  0  0
M  END
