602
 OpenBabel08181812023D

  8  7  0  0  0  0  0  0  0  0999 V2000
    0.7970   -0.0242   -0.0630 C   0  0  0  0  0  0  0  0  0  0  0  0
   -0.7635   -0.0465    0.0812 C   0  0  0  0  0  0  0  0  0  0  0  0
   -1.2588   -0.9987   -0.7373 F   0  0  0  0  0  0  0  0  0  0  0  0
   -1.0745   -0.3738    1.3533 F   0  0  0  0  0  0  0  0  0  0  0  0
   -1.4674    1.5269   -0.3270 Cl  0  0  0  0  0  0  0  0  0  0  0  0
    1.2865   -1.2374    0.2563 F   0  0  0  0  0  0  0  0  0  0  0  0
    1.1482    0.2645   -1.3270 F   0  0  0  0  0  0  0  0  0  0  0  0
    1.3326    0.8892    0.7635 F   0  0  0  0  0  0  0  0  0  0  0  0
  1  2  1  0  0  0  0
  1  6  1  0  0  0  0
  1  8  1  0  0  0  0
  2  4  1  0  0  0  0
  3  2  1  0  0  0  0
  5  2  1  0  0  0  0
  7  1  1  0  0  0  0
M  END
