460
 OpenBabel08181812023D

  9  9  0  0  0  0  0  0  0  0999 V2000
   -0.7103    0.7444    0.0089 C   0  0  0  0  0  0  0  0  0  0  0  0
    0.7221    0.7327   -0.0202 C   0  0  0  0  0  0  0  0  0  0  0  0
    1.0921   -0.5799   -0.0180 C   0  0  0  0  0  0  0  0  0  0  0  0
   -0.0111   -1.3879    0.0106 O   0  0  0  0  0  0  0  0  0  0  0  0
   -1.1013   -0.5619    0.0267 C   0  0  0  0  0  0  0  0  0  0  0  0
   -1.3621    1.6107    0.0158 H   0  0  0  0  0  0  0  0  0  0  0  0
    1.3877    1.5882   -0.0402 H   0  0  0  0  0  0  0  0  0  0  0  0
    2.0471   -1.0901   -0.0337 H   0  0  0  0  0  0  0  0  0  0  0  0
   -2.0643   -1.0564    0.0501 H   0  0  0  0  0  0  0  0  0  0  0  0
  1  6  1  0  0  0  0
  1  5  2  0  0  0  0
  2  3  2  0  0  0  0
  2  1  1  0  0  0  0
  3  4  1  0  0  0  0
  4  5  1  0  0  0  0
  5  9  1  0  0  0  0
  7  2  1  0  0  0  0
  8  3  1  0  0  0  0
M  END
