426
 OpenBabel08181812023D

  8  7  0  0  1  0  0  0  0  0999 V2000
    0.7300    0.0209    0.1593 C   0  0  1  0  0  0  0  0  0  0  0  0
   -0.7902   -0.1053   -0.0623 C   0  0  0  0  0  0  0  0  0  0  0  0
   -1.1784   -1.3822    0.1704 F   0  0  0  0  0  0  0  0  0  0  0  0
   -1.1662    0.2286   -1.3080 F   0  0  0  0  0  0  0  0  0  0  0  0
   -1.4523    0.6858    0.8128 F   0  0  0  0  0  0  0  0  0  0  0  0
    1.6093   -1.0763   -0.9106 Cl  0  0  0  0  0  0  0  0  0  0  0  0
    1.2936    1.8789   -0.0561 Br  0  0  0  0  0  0  0  0  0  0  0  0
    0.9542   -0.2503    1.1944 H   0  0  0  0  0  0  0  0  0  0  0  0
  1  8  1  1  0  0  0
  2  1  1  0  0  0  0
  2  3  1  0  0  0  0
  2  5  1  0  0  0  0
  4  2  1  0  0  0  0
  6  1  1  0  0  0  0
  7  1  1  0  0  0  0
M  END
