475
 OpenBabel08181812023D

 29 28  0  0  0  0  0  0  0  0999 V2000
    4.4133    1.2356    0.3949 C   0  0  0  0  0  0  0  0  0  0  0  0
    3.1253    0.5335    0.8255 C   0  0  0  0  0  0  0  0  0  0  0  0
    2.3688   -0.0914   -0.3508 C   0  0  0  0  0  0  0  0  0  0  0  0
    1.1099   -0.8787    0.0353 C   0  0  0  0  0  0  0  0  0  0  0  0
   -0.0354   -0.0181    0.5789 C   0  0  0  0  0  0  0  0  0  0  0  0
   -1.2845   -0.8138    0.9811 C   0  0  0  0  0  0  0  0  0  0  0  0
   -2.0364   -1.4732   -0.1681 C   0  0  0  0  0  0  0  0  0  0  0  0
   -2.5292   -0.4891   -1.1201 O   0  0  0  0  0  0  0  0  0  0  0  0
   -3.7809   -0.0058   -0.8893 C   0  0  0  0  0  0  0  0  0  0  0  0
   -4.4912   -0.3600    0.0298 O   0  0  0  0  0  0  0  0  0  0  0  0
   -4.1611    1.0300   -1.9177 C   0  0  0  0  0  0  0  0  0  0  0  0
    4.9474    1.6659    1.2529 H   0  0  0  0  0  0  0  0  0  0  0  0
    4.2034    2.0527   -0.3104 H   0  0  0  0  0  0  0  0  0  0  0  0
    5.0974    0.5357   -0.1070 H   0  0  0  0  0  0  0  0  0  0  0  0
    3.3624   -0.2557    1.5584 H   0  0  0  0  0  0  0  0  0  0  0  0
    2.4783    1.2524    1.3514 H   0  0  0  0  0  0  0  0  0  0  0  0
    3.0567   -0.7638   -0.8896 H   0  0  0  0  0  0  0  0  0  0  0  0
    2.0970    0.7002   -1.0704 H   0  0  0  0  0  0  0  0  0  0  0  0
    1.3774   -1.6425    0.7865 H   0  0  0  0  0  0  0  0  0  0  0  0
    0.7626   -1.4331   -0.8506 H   0  0  0  0  0  0  0  0  0  0  0  0
   -0.3107    0.7391   -0.1731 H   0  0  0  0  0  0  0  0  0  0  0  0
    0.3104    0.5408    1.4613 H   0  0  0  0  0  0  0  0  0  0  0  0
   -1.0018   -1.6142    1.6855 H   0  0  0  0  0  0  0  0  0  0  0  0
   -1.9883   -0.1649    1.5229 H   0  0  0  0  0  0  0  0  0  0  0  0
   -2.8884   -2.0519    0.2095 H   0  0  0  0  0  0  0  0  0  0  0  0
   -1.3871   -2.1257   -0.7645 H   0  0  0  0  0  0  0  0  0  0  0  0
   -5.1784    0.8262   -2.2710 H   0  0  0  0  0  0  0  0  0  0  0  0
   -3.4623    1.0540   -2.7591 H   0  0  0  0  0  0  0  0  0  0  0  0
   -4.1742    2.0156   -1.4331 H   0  0  0  0  0  0  0  0  0  0  0  0
  1  2  1  0  0  0  0
  1 12  1  0  0  0  0
  2 16  1  0  0  0  0
  2 15  1  0  0  0  0
  3  4  1  0  0  0  0
  3  2  1  0  0  0  0
  4  5  1  0  0  0  0
  4 19  1  0  0  0  0
  5  6  1  0  0  0  0
  5 22  1  0  0  0  0
  6 24  1  0  0  0  0
  6 23  1  0  0  0  0
  7 25  1  0  0  0  0
  7  6  1  0  0  0  0
  8  9  1  0  0  0  0
  8  7  1  0  0  0  0
  9 10  2  0  0  0  0
 11 29  1  0  0  0  0
 11  9  1  0  0  0  0
 13  1  1  0  0  0  0
 14  1  1  0  0  0  0
 17  3  1  0  0  0  0
 18  3  1  0  0  0  0
 20  4  1  0  0  0  0
 21  5  1  0  0  0  0
 26  7  1  0  0  0  0
 27 11  1  0  0  0  0
 28 11  1  0  0  0  0
M  END
