650
 OpenBabel08181812023D

 21 20  0  0  0  0  0  0  0  0999 V2000
   -3.5810    0.0444    0.3265 C   0  0  0  0  0  0  0  0  0  0  0  0
   -2.1400    0.5419    0.2193 C   0  0  0  0  0  0  0  0  0  0  0  0
   -1.2361   -0.4086   -0.5829 C   0  0  0  0  0  0  0  0  0  0  0  0
    0.1617    0.1054   -0.7541 C   0  0  0  0  0  0  0  0  0  0  0  0
    1.2735   -0.5023   -0.3245 C   0  0  0  0  0  0  0  0  0  0  0  0
    2.6701    0.0213   -0.4847 C   0  0  0  0  0  0  0  0  0  0  0  0
    3.3938    0.2158    0.8551 C   0  0  0  0  0  0  0  0  0  0  0  0
   -4.2035    0.7352    0.9113 H   0  0  0  0  0  0  0  0  0  0  0  0
   -4.0403   -0.0588   -0.6673 H   0  0  0  0  0  0  0  0  0  0  0  0
   -3.6273   -0.9401    0.8142 H   0  0  0  0  0  0  0  0  0  0  0  0
   -2.1250    1.5369   -0.2539 H   0  0  0  0  0  0  0  0  0  0  0  0
   -1.7119    0.6767    1.2247 H   0  0  0  0  0  0  0  0  0  0  0  0
   -1.2121   -1.3965   -0.0954 H   0  0  0  0  0  0  0  0  0  0  0  0
   -1.6944   -0.5624   -1.5766 H   0  0  0  0  0  0  0  0  0  0  0  0
    0.2592    1.0683   -1.2711 H   0  0  0  0  0  0  0  0  0  0  0  0
    1.1779   -1.4625    0.1980 H   0  0  0  0  0  0  0  0  0  0  0  0
    3.2543   -0.6844   -1.1004 H   0  0  0  0  0  0  0  0  0  0  0  0
    2.6443    0.9706   -1.0408 H   0  0  0  0  0  0  0  0  0  0  0  0
    3.4417   -0.7270    1.4181 H   0  0  0  0  0  0  0  0  0  0  0  0
    4.4239    0.5661    0.7031 H   0  0  0  0  0  0  0  0  0  0  0  0
    2.8712    0.9512    1.4813 H   0  0  0  0  0  0  0  0  0  0  0  0
  1 10  1  0  0  0  0
  1  8  1  0  0  0  0
  2  1  1  0  0  0  0
  2 12  1  0  0  0  0
  3 13  1  0  0  0  0
  3  2  1  0  0  0  0
  4  3  1  0  0  0  0
  4  5  2  0  0  0  0
  5 16  1  0  0  0  0
  6  5  1  0  0  0  0
  6  7  1  0  0  0  0
  7 19  1  0  0  0  0
  7 21  1  0  0  0  0
  9  1  1  0  0  0  0
 11  2  1  0  0  0  0
 14  3  1  0  0  0  0
 15  4  1  0  0  0  0
 17  6  1  0  0  0  0
 18  6  1  0  0  0  0
 20  7  1  0  0  0  0
M  END
