087
 OpenBabel08181812023D

 24 23  0  0  0  0  0  0  0  0999 V2000
   -2.7580    0.9986   -0.1954 C   0  0  0  0  0  0  0  0  0  0  0  0
   -2.6028   -0.2065    0.7338 C   0  0  0  0  0  0  0  0  0  0  0  0
   -1.4205   -1.1330    0.4139 C   0  0  0  0  0  0  0  0  0  0  0  0
   -0.0243   -0.4860    0.5344 C   0  0  0  0  0  0  0  0  0  0  0  0
    0.5732   -0.0283   -0.8034 C   0  0  0  0  0  0  0  0  0  0  0  0
    1.9120    0.7168   -0.7110 C   0  0  0  0  0  0  0  0  0  0  0  0
    3.1382   -0.1294   -0.3689 C   0  0  0  0  0  0  0  0  0  0  0  0
    3.1543   -0.6650    0.9610 O   0  0  0  0  0  0  0  0  0  0  0  0
   -1.8853    1.6648   -0.1497 H   0  0  0  0  0  0  0  0  0  0  0  0
   -2.8809    0.6824   -1.2417 H   0  0  0  0  0  0  0  0  0  0  0  0
   -3.6387    1.5969    0.0768 H   0  0  0  0  0  0  0  0  0  0  0  0
   -2.4994    0.1485    1.7729 H   0  0  0  0  0  0  0  0  0  0  0  0
   -3.5309   -0.7995    0.7097 H   0  0  0  0  0  0  0  0  0  0  0  0
   -1.4783   -1.9973    1.0927 H   0  0  0  0  0  0  0  0  0  0  0  0
   -1.5461   -1.5447   -0.6024 H   0  0  0  0  0  0  0  0  0  0  0  0
    0.6752   -1.1879    1.0066 H   0  0  0  0  0  0  0  0  0  0  0  0
   -0.0834    0.3800    1.2174 H   0  0  0  0  0  0  0  0  0  0  0  0
   -0.1498    0.6218   -1.3201 H   0  0  0  0  0  0  0  0  0  0  0  0
    0.7010   -0.9089   -1.4565 H   0  0  0  0  0  0  0  0  0  0  0  0
    2.1206    1.1949   -1.6831 H   0  0  0  0  0  0  0  0  0  0  0  0
    1.8313    1.5460    0.0154 H   0  0  0  0  0  0  0  0  0  0  0  0
    3.1828   -1.0086   -1.0292 H   0  0  0  0  0  0  0  0  0  0  0  0
    4.0540    0.4622   -0.5523 H   0  0  0  0  0  0  0  0  0  0  0  0
    3.1557    0.0822    1.5790 H   0  0  0  0  0  0  0  0  0  0  0  0
  1  9  1  0  0  0  0
  1 11  1  0  0  0  0
  1  2  1  0  0  0  0
  2 12  1  0  0  0  0
  3  4  1  0  0  0  0
  3  2  1  0  0  0  0
  3 14  1  0  0  0  0
  4 16  1  0  0  0  0
  4 17  1  0  0  0  0
  5  6  1  0  0  0  0
  5  4  1  0  0  0  0
  6  7  1  0  0  0  0
  6 21  1  0  0  0  0
  7  8  1  0  0  0  0
  8 24  1  0  0  0  0
 10  1  1  0  0  0  0
 13  2  1  0  0  0  0
 15  3  1  0  0  0  0
 18  5  1  0  0  0  0
 19  5  1  0  0  0  0
 20  6  1  0  0  0  0
 22  7  1  0  0  0  0
 23  7  1  0  0  0  0
M  END
