612
 OpenBabel08181812023D

 11 10  0  0  0  0  0  0  0  0999 V2000
    0.0707   -0.3173    0.5037 C   0  0  0  0  0  0  0  0  0  0  0  0
   -1.3072   -0.1403   -0.1737 C   0  0  0  0  0  0  0  0  0  0  0  0
   -1.3070   -0.7017   -1.4027 F   0  0  0  0  0  0  0  0  0  0  0  0
   -2.2437   -0.7672    0.5736 F   0  0  0  0  0  0  0  0  0  0  0  0
   -1.6631    1.1514   -0.2908 F   0  0  0  0  0  0  0  0  0  0  0  0
    1.2593    0.3497   -0.2252 C   0  0  0  0  0  0  0  0  0  0  0  0
    1.4181   -0.1813   -1.4575 F   0  0  0  0  0  0  0  0  0  0  0  0
    2.3890    0.1173    0.4805 F   0  0  0  0  0  0  0  0  0  0  0  0
    1.1096    1.6808   -0.3464 F   0  0  0  0  0  0  0  0  0  0  0  0
   -0.0035    0.2053    1.7763 F   0  0  0  0  0  0  0  0  0  0  0  0
    0.2780   -1.3968    0.5623 H   0  0  0  0  0  0  0  0  0  0  0  0
  1 11  1  0  0  0  0
  1 10  1  0  0  0  0
  2  1  1  0  0  0  0
  2  4  1  0  0  0  0
  3  2  1  0  0  0  0
  5  2  1  0  0  0  0
  6  8  1  0  0  0  0
  6  1  1  0  0  0  0
  7  6  1  0  0  0  0
  9  6  1  0  0  0  0
M  END
