361
 OpenBabel08181812023D

 22 21  0  0  0  0  0  0  0  0999 V2000
    3.4780    0.1881    0.8811 C   0  0  0  0  0  0  0  0  0  0  0  0
    1.9784    0.0675    1.1499 C   0  0  0  0  0  0  0  0  0  0  0  0
    1.1284    0.1423   -0.1204 C   0  0  0  0  0  0  0  0  0  0  0  0
   -0.3732    0.0204    0.1428 C   0  0  0  0  0  0  0  0  0  0  0  0
   -1.2166    0.0529   -1.1351 C   0  0  0  0  0  0  0  0  0  0  0  0
   -2.7173   -0.0533   -0.8741 C   0  0  0  0  0  0  0  0  0  0  0  0
   -3.3757    1.1869   -0.3218 C   0  0  0  0  0  0  0  0  0  0  0  0
   -2.8349    2.2624   -0.1704 O   0  0  0  0  0  0  0  0  0  0  0  0
    3.7195    1.1469    0.3999 H   0  0  0  0  0  0  0  0  0  0  0  0
    4.0616    0.1258    1.8096 H   0  0  0  0  0  0  0  0  0  0  0  0
    3.8280   -0.6129    0.2136 H   0  0  0  0  0  0  0  0  0  0  0  0
    1.6619    0.8636    1.8433 H   0  0  0  0  0  0  0  0  0  0  0  0
    1.7717   -0.8840    1.6671 H   0  0  0  0  0  0  0  0  0  0  0  0
    1.3303    1.0955   -0.6380 H   0  0  0  0  0  0  0  0  0  0  0  0
    1.4454   -0.6540   -0.8162 H   0  0  0  0  0  0  0  0  0  0  0  0
   -0.5722   -0.9218    0.6829 H   0  0  0  0  0  0  0  0  0  0  0  0
   -0.6928    0.8359    0.8099 H   0  0  0  0  0  0  0  0  0  0  0  0
   -1.0162    0.9868   -1.6822 H   0  0  0  0  0  0  0  0  0  0  0  0
   -0.9095   -0.7726   -1.7960 H   0  0  0  0  0  0  0  0  0  0  0  0
   -2.9580   -0.8848   -0.1864 H   0  0  0  0  0  0  0  0  0  0  0  0
   -3.2771   -0.2960   -1.7968 H   0  0  0  0  0  0  0  0  0  0  0  0
   -4.4597    1.0579   -0.0629 H   0  0  0  0  0  0  0  0  0  0  0  0
  1  2  1  0  0  0  0
  1 10  1  0  0  0  0
  2 13  1  0  0  0  0
  2 12  1  0  0  0  0
  3  4  1  0  0  0  0
  3  2  1  0  0  0  0
  4 16  1  0  0  0  0
  4 17  1  0  0  0  0
  5  6  1  0  0  0  0
  5  4  1  0  0  0  0
  6  7  1  0  0  0  0
  6 20  1  0  0  0  0
  7  8  2  0  0  0  0
  7 22  1  0  0  0  0
  9  1  1  0  0  0  0
 11  1  1  0  0  0  0
 14  3  1  0  0  0  0
 15  3  1  0  0  0  0
 18  5  1  0  0  0  0
 19  5  1  0  0  0  0
 21  6  1  0  0  0  0
M  END
