086
 OpenBabel08181812023D

 21 20  0  0  0  0  0  0  0  0999 V2000
    2.8213    0.6551    0.3745 C   0  0  0  0  0  0  0  0  0  0  0  0
    1.6724   -0.2272   -0.1141 C   0  0  0  0  0  0  0  0  0  0  0  0
    0.5795    0.5612   -0.8414 C   0  0  0  0  0  0  0  0  0  0  0  0
   -0.5606   -0.2921   -1.4136 C   0  0  0  0  0  0  0  0  0  0  0  0
   -1.3890   -1.0744   -0.3832 C   0  0  0  0  0  0  0  0  0  0  0  0
   -2.1239   -0.2119    0.6318 C   0  0  0  0  0  0  0  0  0  0  0  0
   -3.0516    0.6290   -0.0703 O   0  0  0  0  0  0  0  0  0  0  0  0
    2.4610    1.4249    1.0726 H   0  0  0  0  0  0  0  0  0  0  0  0
    3.3086    1.1741   -0.4636 H   0  0  0  0  0  0  0  0  0  0  0  0
    3.5900    0.0680    0.8954 H   0  0  0  0  0  0  0  0  0  0  0  0
    2.0650   -1.0055   -0.7896 H   0  0  0  0  0  0  0  0  0  0  0  0
    1.2398   -0.7636    0.7452 H   0  0  0  0  0  0  0  0  0  0  0  0
    1.0415    1.1220   -1.6706 H   0  0  0  0  0  0  0  0  0  0  0  0
    0.1709    1.3281   -0.1621 H   0  0  0  0  0  0  0  0  0  0  0  0
   -0.1396   -1.0111   -2.1353 H   0  0  0  0  0  0  0  0  0  0  0  0
   -1.2397    0.3567   -1.9854 H   0  0  0  0  0  0  0  0  0  0  0  0
   -2.1342   -1.6868   -0.9142 H   0  0  0  0  0  0  0  0  0  0  0  0
   -0.7504   -1.7789    0.1723 H   0  0  0  0  0  0  0  0  0  0  0  0
   -2.6564   -0.8624    1.3488 H   0  0  0  0  0  0  0  0  0  0  0  0
   -1.4081    0.4019    1.2087 H   0  0  0  0  0  0  0  0  0  0  0  0
   -3.4966    1.1929    0.5789 H   0  0  0  0  0  0  0  0  0  0  0  0
  1 10  1  0  0  0  0
  1  8  1  0  0  0  0
  2  1  1  0  0  0  0
  2 12  1  0  0  0  0
  3 14  1  0  0  0  0
  3  2  1  0  0  0  0
  4  3  1  0  0  0  0
  4  5  1  0  0  0  0
  5 18  1  0  0  0  0
  5  6  1  0  0  0  0
  6 20  1  0  0  0  0
  6 19  1  0  0  0  0
  7 21  1  0  0  0  0
  7  6  1  0  0  0  0
  9  1  1  0  0  0  0
 11  2  1  0  0  0  0
 13  3  1  0  0  0  0
 15  4  1  0  0  0  0
 16  4  1  0  0  0  0
 17  5  1  0  0  0  0
M  END
