610
 OpenBabel08181812023D

 16 15  0  0  0  0  0  0  0  0999 V2000
   -2.8028   -0.3805    0.2106 C   0  0  0  0  0  0  0  0  0  0  0  0
   -1.5605    0.2949   -0.3720 C   0  0  0  0  0  0  0  0  0  0  0  0
   -0.2747   -0.1582    0.2678 C   0  0  0  0  0  0  0  0  0  0  0  0
    0.9565    0.2784   -0.0604 C   0  0  0  0  0  0  0  0  0  0  0  0
    2.1767   -0.1763    0.5734 C   0  0  0  0  0  0  0  0  0  0  0  0
    3.4115    0.2515    0.2555 C   0  0  0  0  0  0  0  0  0  0  0  0
   -2.7567   -1.4713    0.0842 H   0  0  0  0  0  0  0  0  0  0  0  0
   -3.7181   -0.0254   -0.2803 H   0  0  0  0  0  0  0  0  0  0  0  0
   -2.8981   -0.1744    1.2859 H   0  0  0  0  0  0  0  0  0  0  0  0
   -1.5145    0.1073   -1.4577 H   0  0  0  0  0  0  0  0  0  0  0  0
   -1.6541    1.3888   -0.2697 H   0  0  0  0  0  0  0  0  0  0  0  0
   -0.3604   -0.9053    1.0654 H   0  0  0  0  0  0  0  0  0  0  0  0
    1.0676    1.0253   -0.8550 H   0  0  0  0  0  0  0  0  0  0  0  0
    2.0606   -0.9224    1.3663 H   0  0  0  0  0  0  0  0  0  0  0  0
    4.2955   -0.1262    0.7668 H   0  0  0  0  0  0  0  0  0  0  0  0
    3.5715    0.9938   -0.5283 H   0  0  0  0  0  0  0  0  0  0  0  0
  1  9  1  0  0  0  0
  2 11  1  0  0  0  0
  2  1  1  0  0  0  0
  2  3  1  0  0  0  0
  3 12  1  0  0  0  0
  4  3  2  0  0  0  0
  4  5  1  0  0  0  0
  5 14  1  0  0  0  0
  6  5  2  0  0  0  0
  6 15  1  0  0  0  0
  7  1  1  0  0  0  0
  8  1  1  0  0  0  0
 10  2  1  0  0  0  0
 13  4  1  0  0  0  0
 16  6  1  0  0  0  0
M  END
