091
 OpenBabel08181812023D

 12 11  0  0  0  0  0  0  0  0999 V2000
   -0.0464    0.2802   -0.4757 C   0  0  0  0  0  0  0  0  0  0  0  0
    1.3344    0.0591    0.1884 C   0  0  0  0  0  0  0  0  0  0  0  0
    1.8070   -1.1913    0.0057 F   0  0  0  0  0  0  0  0  0  0  0  0
    2.2292    0.9209   -0.3438 F   0  0  0  0  0  0  0  0  0  0  0  0
    1.2804    0.2996    1.5243 F   0  0  0  0  0  0  0  0  0  0  0  0
   -1.1317   -0.7331   -0.0374 C   0  0  0  0  0  0  0  0  0  0  0  0
   -1.4476   -0.5769    1.2745 F   0  0  0  0  0  0  0  0  0  0  0  0
   -2.2574   -0.5202   -0.7545 F   0  0  0  0  0  0  0  0  0  0  0  0
   -0.7567   -2.0148   -0.2293 F   0  0  0  0  0  0  0  0  0  0  0  0
   -0.4878    1.5967   -0.2749 O   0  0  0  0  0  0  0  0  0  0  0  0
    0.0963    0.1439   -1.5567 H   0  0  0  0  0  0  0  0  0  0  0  0
   -0.6197    1.7357    0.6793 H   0  0  0  0  0  0  0  0  0  0  0  0
  1 10  1  0  0  0  0
  1  6  1  0  0  0  0
  1  2  1  0  0  0  0
  2  5  1  0  0  0  0
  3  2  1  0  0  0  0
  4  2  1  0  0  0  0
  6  7  1  0  0  0  0
  8  6  1  0  0  0  0
  9  6  1  0  0  0  0
 10 12  1  0  0  0  0
 11  1  1  0  0  0  0
M  END
