213
 OpenBabel08181812023D

 51 50  0  0  0  0  0  0  0  0999 V2000
    7.4886    0.7704    1.4692 C   0  0  0  0  0  0  0  0  0  0  0  0
    6.8228    0.3668    0.1534 C   0  0  0  0  0  0  0  0  0  0  0  0
    5.7910   -0.7518    0.3253 C   0  0  0  0  0  0  0  0  0  0  0  0
    5.1632   -1.2544   -0.9829 C   0  0  0  0  0  0  0  0  0  0  0  0
    4.3496   -0.2159   -1.7727 C   0  0  0  0  0  0  0  0  0  0  0  0
    3.1147    0.3511   -1.0557 C   0  0  0  0  0  0  0  0  0  0  0  0
    1.9894   -0.6671   -0.8429 C   0  0  0  0  0  0  0  0  0  0  0  0
    0.7689   -0.1269   -0.0839 C   0  0  0  0  0  0  0  0  0  0  0  0
   -0.0021    0.9790   -0.8130 C   0  0  0  0  0  0  0  0  0  0  0  0
   -1.2381    1.4902   -0.0598 C   0  0  0  0  0  0  0  0  0  0  0  0
   -2.4003    0.4960    0.0260 C   0  0  0  0  0  0  0  0  0  0  0  0
   -3.6088    1.0603    0.7790 C   0  0  0  0  0  0  0  0  0  0  0  0
   -4.7913    0.0935    0.9253 C   0  0  0  0  0  0  0  0  0  0  0  0
   -5.5051   -0.2391   -0.3903 C   0  0  0  0  0  0  0  0  0  0  0  0
   -6.6800   -1.2147   -0.2511 C   0  0  0  0  0  0  0  0  0  0  0  0
   -7.8615   -0.6574    0.5285 C   0  0  0  0  0  0  0  0  0  0  0  0
   -8.9219   -1.6217    0.4711 O   0  0  0  0  0  0  0  0  0  0  0  0
    8.2314    1.5658    1.3203 H   0  0  0  0  0  0  0  0  0  0  0  0
    8.0030   -0.0840    1.9326 H   0  0  0  0  0  0  0  0  0  0  0  0
    6.7471    1.1393    2.1926 H   0  0  0  0  0  0  0  0  0  0  0  0
    6.3458    1.2513   -0.2970 H   0  0  0  0  0  0  0  0  0  0  0  0
    7.5925    0.0389   -0.5652 H   0  0  0  0  0  0  0  0  0  0  0  0
    6.2768   -1.6042    0.8285 H   0  0  0  0  0  0  0  0  0  0  0  0
    5.0022   -0.4121    1.0174 H   0  0  0  0  0  0  0  0  0  0  0  0
    4.5291   -2.1267   -0.7596 H   0  0  0  0  0  0  0  0  0  0  0  0
    5.9673   -1.6326   -1.6358 H   0  0  0  0  0  0  0  0  0  0  0  0
    4.0257   -0.6753   -2.7213 H   0  0  0  0  0  0  0  0  0  0  0  0
    5.0090    0.6183   -2.0586 H   0  0  0  0  0  0  0  0  0  0  0  0
    3.4076    0.7754   -0.0805 H   0  0  0  0  0  0  0  0  0  0  0  0
    2.7348    1.1983   -1.6463 H   0  0  0  0  0  0  0  0  0  0  0  0
    2.3820   -1.5367   -0.2932 H   0  0  0  0  0  0  0  0  0  0  0  0
    1.6646   -1.0524   -1.8252 H   0  0  0  0  0  0  0  0  0  0  0  0
    1.0936    0.2527    0.9006 H   0  0  0  0  0  0  0  0  0  0  0  0
    0.0904   -0.9683    0.1253 H   0  0  0  0  0  0  0  0  0  0  0  0
   -0.3084    0.6124   -1.8084 H   0  0  0  0  0  0  0  0  0  0  0  0
    0.6700    1.8308   -0.9974 H   0  0  0  0  0  0  0  0  0  0  0  0
   -1.6006    2.4084   -0.5508 H   0  0  0  0  0  0  0  0  0  0  0  0
   -0.9413    1.7918    0.9598 H   0  0  0  0  0  0  0  0  0  0  0  0
   -2.6914    0.2044   -0.9965 H   0  0  0  0  0  0  0  0  0  0  0  0
   -2.0724   -0.4298    0.5268 H   0  0  0  0  0  0  0  0  0  0  0  0
   -3.9533    1.9814    0.2771 H   0  0  0  0  0  0  0  0  0  0  0  0
   -3.2793    1.3716    1.7842 H   0  0  0  0  0  0  0  0  0  0  0  0
   -4.4407   -0.8434    1.3922 H   0  0  0  0  0  0  0  0  0  0  0  0
   -5.5128    0.5319    1.6319 H   0  0  0  0  0  0  0  0  0  0  0  0
   -4.7837   -0.6712   -1.1000 H   0  0  0  0  0  0  0  0  0  0  0  0
   -5.8600    0.6978   -0.8543 H   0  0  0  0  0  0  0  0  0  0  0  0
   -7.0459   -1.4971   -1.2502 H   0  0  0  0  0  0  0  0  0  0  0  0
   -6.3433   -2.1456    0.2326 H   0  0  0  0  0  0  0  0  0  0  0  0
   -8.1815    0.3026    0.0796 H   0  0  0  0  0  0  0  0  0  0  0  0
   -7.5803   -0.4584    1.5776 H   0  0  0  0  0  0  0  0  0  0  0  0
   -9.6572   -1.2934    1.0095 H   0  0  0  0  0  0  0  0  0  0  0  0
  1 19  1  0  0  0  0
  1 20  1  0  0  0  0
  2  3  1  0  0  0  0
  2  1  1  0  0  0  0
  3 23  1  0  0  0  0
  3 24  1  0  0  0  0
  4 25  1  0  0  0  0
  4  3  1  0  0  0  0
  5  6  1  0  0  0  0
  5  4  1  0  0  0  0
  6  7  1  0  0  0  0
  6 29  1  0  0  0  0
  7 31  1  0  0  0  0
  7  8  1  0  0  0  0
  8 34  1  0  0  0  0
  8 33  1  0  0  0  0
  9  8  1  0  0  0  0
  9 10  1  0  0  0  0
 10 11  1  0  0  0  0
 10 38  1  0  0  0  0
 11 40  1  0  0  0  0
 11 12  1  0  0  0  0
 12 13  1  0  0  0  0
 12 42  1  0  0  0  0
 13 43  1  0  0  0  0
 13 44  1  0  0  0  0
 14 15  1  0  0  0  0
 14 13  1  0  0  0  0
 15 48  1  0  0  0  0
 15 16  1  0  0  0  0
 16 50  1  0  0  0  0
 17 16  1  0  0  0  0
 17 51  1  0  0  0  0
 18  1  1  0  0  0  0
 21  2  1  0  0  0  0
 22  2  1  0  0  0  0
 26  4  1  0  0  0  0
 27  5  1  0  0  0  0
 28  5  1  0  0  0  0
 30  6  1  0  0  0  0
 32  7  1  0  0  0  0
 35  9  1  0  0  0  0
 36  9  1  0  0  0  0
 37 10  1  0  0  0  0
 39 11  1  0  0  0  0
 41 12  1  0  0  0  0
 45 14  1  0  0  0  0
 46 14  1  0  0  0  0
 47 15  1  0  0  0  0
 49 16  1  0  0  0  0
M  END
