282
 OpenBabel08181812023D

 12 12  0  0  0  0  0  0  0  0999 V2000
    0.2219    1.3877   -0.0319 C   0  0  0  0  0  0  0  0  0  0  0  0
   -1.0910    0.8865    0.0028 C   0  0  0  0  0  0  0  0  0  0  0  0
   -1.3129   -0.5012    0.0347 C   0  0  0  0  0  0  0  0  0  0  0  0
   -0.2219   -1.3877    0.0319 C   0  0  0  0  0  0  0  0  0  0  0  0
    1.0910   -0.8865   -0.0028 C   0  0  0  0  0  0  0  0  0  0  0  0
    1.3129    0.5012   -0.0347 C   0  0  0  0  0  0  0  0  0  0  0  0
    2.9177    1.1139   -0.0774 Cl  0  0  0  0  0  0  0  0  0  0  0  0
    2.4245   -1.9702   -0.0061 Cl  0  0  0  0  0  0  0  0  0  0  0  0
   -0.4932   -3.0840    0.0707 Cl  0  0  0  0  0  0  0  0  0  0  0  0
   -2.9177   -1.1139    0.0774 Cl  0  0  0  0  0  0  0  0  0  0  0  0
   -2.4245    1.9702    0.0061 Cl  0  0  0  0  0  0  0  0  0  0  0  0
    0.4932    3.0840   -0.0707 Cl  0  0  0  0  0  0  0  0  0  0  0  0
  1  2  1  0  0  0  0
  2 11  1  0  0  0  0
  2  3  2  0  0  0  0
  3 10  1  0  0  0  0
  4  3  1  0  0  0  0
  4  9  1  0  0  0  0
  5  4  2  0  0  0  0
  6  1  2  0  0  0  0
  6  5  1  0  0  0  0
  7  6  1  0  0  0  0
  8  5  1  0  0  0  0
 12  1  1  0  0  0  0
M  END
