105
 OpenBabel08181812023D

 50 49  0  0  0  0  0  0  0  0999 V2000
   -8.1334    0.5499    0.0921 C   0  0  0  0  0  0  0  0  0  0  0  0
   -6.6199    0.4425    0.2768 C   0  0  0  0  0  0  0  0  0  0  0  0
   -5.9789   -0.5973   -0.6473 C   0  0  0  0  0  0  0  0  0  0  0  0
   -4.4544   -0.7120   -0.5240 C   0  0  0  0  0  0  0  0  0  0  0  0
   -3.9737   -1.3052    0.8050 C   0  0  0  0  0  0  0  0  0  0  0  0
   -2.4571   -1.5134    0.8970 C   0  0  0  0  0  0  0  0  0  0  0  0
   -1.6346   -0.2233    0.9594 C   0  0  0  0  0  0  0  0  0  0  0  0
   -0.1326   -0.4714    1.1159 C   0  0  0  0  0  0  0  0  0  0  0  0
    0.6874    0.8159    1.2343 C   0  0  0  0  0  0  0  0  0  0  0  0
    2.1916    0.6021    1.4418 C   0  0  0  0  0  0  0  0  0  0  0  0
    2.9342    0.0143    0.2378 C   0  0  0  0  0  0  0  0  0  0  0  0
    4.4371   -0.1385    0.4890 C   0  0  0  0  0  0  0  0  0  0  0  0
    5.2307   -0.7496   -0.6735 C   0  0  0  0  0  0  0  0  0  0  0  0
    5.2296    0.0598   -1.9804 C   0  0  0  0  0  0  0  0  0  0  0  0
    5.7596    1.4965   -1.8717 C   0  0  0  0  0  0  0  0  0  0  0  0
    7.2149    1.5981   -1.4113 C   0  0  0  0  0  0  0  0  0  0  0  0
   -8.5702    1.3110    0.7526 H   0  0  0  0  0  0  0  0  0  0  0  0
   -8.6286   -0.4066    0.3136 H   0  0  0  0  0  0  0  0  0  0  0  0
   -8.3892    0.8201   -0.9429 H   0  0  0  0  0  0  0  0  0  0  0  0
   -6.3987    0.1982    1.3271 H   0  0  0  0  0  0  0  0  0  0  0  0
   -6.1532    1.4238    0.0887 H   0  0  0  0  0  0  0  0  0  0  0  0
   -6.4344   -1.5844   -0.4536 H   0  0  0  0  0  0  0  0  0  0  0  0
   -6.2374   -0.3459   -1.6892 H   0  0  0  0  0  0  0  0  0  0  0  0
   -4.0075    0.2840   -0.6778 H   0  0  0  0  0  0  0  0  0  0  0  0
   -4.0756   -1.3441   -1.3444 H   0  0  0  0  0  0  0  0  0  0  0  0
   -4.4766   -2.2753    0.9534 H   0  0  0  0  0  0  0  0  0  0  0  0
   -4.2966   -0.6656    1.6427 H   0  0  0  0  0  0  0  0  0  0  0  0
   -2.2342   -2.1132    1.7947 H   0  0  0  0  0  0  0  0  0  0  0  0
   -2.1204   -2.1196    0.0381 H   0  0  0  0  0  0  0  0  0  0  0  0
   -1.8062    0.3800    0.0532 H   0  0  0  0  0  0  0  0  0  0  0  0
   -1.9920    0.3911    1.8042 H   0  0  0  0  0  0  0  0  0  0  0  0
    0.0410   -1.0919    2.0124 H   0  0  0  0  0  0  0  0  0  0  0  0
    0.2225   -1.0694    0.2610 H   0  0  0  0  0  0  0  0  0  0  0  0
    0.5284    1.4348    0.3343 H   0  0  0  0  0  0  0  0  0  0  0  0
    0.2927    1.4057    2.0779 H   0  0  0  0  0  0  0  0  0  0  0  0
    2.6560    1.5680    1.6998 H   0  0  0  0  0  0  0  0  0  0  0  0
    2.3479   -0.0498    2.3187 H   0  0  0  0  0  0  0  0  0  0  0  0
    2.7610    0.6631   -0.6368 H   0  0  0  0  0  0  0  0  0  0  0  0
    2.5135   -0.9700   -0.0256 H   0  0  0  0  0  0  0  0  0  0  0  0
    4.8595    0.8453    0.7539 H   0  0  0  0  0  0  0  0  0  0  0  0
    4.5828   -0.7707    1.3803 H   0  0  0  0  0  0  0  0  0  0  0  0
    6.2697   -0.9081   -0.3447 H   0  0  0  0  0  0  0  0  0  0  0  0
    4.8319   -1.7547   -0.8887 H   0  0  0  0  0  0  0  0  0  0  0  0
    4.2088    0.0899   -2.3927 H   0  0  0  0  0  0  0  0  0  0  0  0
    5.8350   -0.4851   -2.7237 H   0  0  0  0  0  0  0  0  0  0  0  0
    5.1185    2.0795   -1.1913 H   0  0  0  0  0  0  0  0  0  0  0  0
    5.6588    1.9774   -2.8572 H   0  0  0  0  0  0  0  0  0  0  0  0
    7.8820    1.0323   -2.0783 H   0  0  0  0  0  0  0  0  0  0  0  0
    7.5583    2.6413   -1.4049 H   0  0  0  0  0  0  0  0  0  0  0  0
    7.3523    1.2024   -0.3956 H   0  0  0  0  0  0  0  0  0  0  0  0
  1  2  1  0  0  0  0
  1 18  1  0  0  0  0
  1 17  1  0  0  0  0
  2 20  1  0  0  0  0
  3  4  1  0  0  0  0
  3 22  1  0  0  0  0
  3  2  1  0  0  0  0
  4  5  1  0  0  0  0
  5  6  1  0  0  0  0
  5 26  1  0  0  0  0
  5 27  1  0  0  0  0
  6  7  1  0  0  0  0
  6 28  1  0  0  0  0
  7  8  1  0  0  0  0
  7 31  1  0  0  0  0
  8  9  1  0  0  0  0
  8 32  1  0  0  0  0
  9 10  1  0  0  0  0
  9 35  1  0  0  0  0
 10 36  1  0  0  0  0
 10 37  1  0  0  0  0
 11 12  1  0  0  0  0
 11 10  1  0  0  0  0
 12 40  1  0  0  0  0
 12 41  1  0  0  0  0
 13 42  1  0  0  0  0
 13 12  1  0  0  0  0
 14 15  1  0  0  0  0
 14 13  1  0  0  0  0
 15 16  1  0  0  0  0
 15 46  1  0  0  0  0
 16 49  1  0  0  0  0
 16 50  1  0  0  0  0
 19  1  1  0  0  0  0
 21  2  1  0  0  0  0
 23  3  1  0  0  0  0
 24  4  1  0  0  0  0
 25  4  1  0  0  0  0
 29  6  1  0  0  0  0
 30  7  1  0  0  0  0
 33  8  1  0  0  0  0
 34  9  1  0  0  0  0
 38 11  1  0  0  0  0
 39 11  1  0  0  0  0
 43 13  1  0  0  0  0
 44 14  1  0  0  0  0
 45 14  1  0  0  0  0
 47 15  1  0  0  0  0
 48 16  1  0  0  0  0
M  END
