275
 OpenBabel08181812023D

 22 21  0  0  0  0  0  0  0  0999 V2000
    3.0432   -0.6676   -0.3264 C   0  0  0  0  0  0  0  0  0  0  0  0
    1.7253   -0.9274   -1.0594 C   0  0  0  0  0  0  0  0  0  0  0  0
    0.4781   -0.8594   -0.1670 C   0  0  0  0  0  0  0  0  0  0  0  0
    0.1600    0.5410    0.3660 C   0  0  0  0  0  0  0  0  0  0  0  0
   -1.0649    0.5977    1.2888 C   0  0  0  0  0  0  0  0  0  0  0  0
   -2.4086    0.3035    0.6153 C   0  0  0  0  0  0  0  0  0  0  0  0
   -2.6991    1.2850   -0.4390 N   0  0  0  0  0  0  0  0  0  0  0  0
    3.0837    0.3423    0.1034 H   0  0  0  0  0  0  0  0  0  0  0  0
    3.1842   -1.3839    0.4966 H   0  0  0  0  0  0  0  0  0  0  0  0
    3.9017   -0.7686   -1.0043 H   0  0  0  0  0  0  0  0  0  0  0  0
    1.7696   -1.9221   -1.5299 H   0  0  0  0  0  0  0  0  0  0  0  0
    1.6142   -0.2065   -1.8861 H   0  0  0  0  0  0  0  0  0  0  0  0
   -0.3824   -1.2322   -0.7438 H   0  0  0  0  0  0  0  0  0  0  0  0
    0.6031   -1.5550    0.6821 H   0  0  0  0  0  0  0  0  0  0  0  0
    1.0269    0.9290    0.9225 H   0  0  0  0  0  0  0  0  0  0  0  0
   -0.0000    1.2224   -0.4837 H   0  0  0  0  0  0  0  0  0  0  0  0
   -1.1221    1.5982    1.7512 H   0  0  0  0  0  0  0  0  0  0  0  0
   -0.9340   -0.1116    2.1226 H   0  0  0  0  0  0  0  0  0  0  0  0
   -3.1882    0.2527    1.4007 H   0  0  0  0  0  0  0  0  0  0  0  0
   -2.3811   -0.6903    0.1434 H   0  0  0  0  0  0  0  0  0  0  0  0
   -2.8460    2.2081   -0.0270 H   0  0  0  0  0  0  0  0  0  0  0  0
   -3.5634    1.0450   -0.9241 H   0  0  0  0  0  0  0  0  0  0  0  0
  1  8  1  0  0  0  0
  1  9  1  0  0  0  0
  2  1  1  0  0  0  0
  2  3  1  0  0  0  0
  3  4  1  0  0  0  0
  3 14  1  0  0  0  0
  4 15  1  0  0  0  0
  4  5  1  0  0  0  0
  5 17  1  0  0  0  0
  5 18  1  0  0  0  0
  6  5  1  0  0  0  0
  6 19  1  0  0  0  0
  7 21  1  0  0  0  0
  7  6  1  0  0  0  0
 10  1  1  0  0  0  0
 11  2  1  0  0  0  0
 12  2  1  0  0  0  0
 13  3  1  0  0  0  0
 16  4  1  0  0  0  0
 20  6  1  0  0  0  0
 22  7  1  0  0  0  0
M  END
