552
 OpenBabel08181812023D

  3  2  0  0  0  0  0  0  0  0999 V2000
   -0.0277    0.0002   -0.0000 C   0  0  0  0  0  0  0  0  0  0  0  0
    1.1297   -0.0089    0.0000 N   0  0  0  0  0  0  0  0  0  0  0  0
   -1.1020    0.0087    0.0000 H   0  0  0  0  0  0  0  0  0  0  0  0
  1  2  3  0  0  0  0
  1  3  1  0  0  0  0
M  END
