576
 OpenBabel08181812023D

  4  3  0  0  0  0  0  0  0  0999 V2000
    0.6055   -0.2830    0.4016 O   0  0  0  0  0  0  0  0  0  0  0  0
   -0.6184   -0.2537   -0.4016 O   0  0  0  0  0  0  0  0  0  0  0  0
    1.1963    0.2399   -0.1712 H   0  0  0  0  0  0  0  0  0  0  0  0
   -1.1834    0.2970    0.1712 H   0  0  0  0  0  0  0  0  0  0  0  0
  2  4  1  0  0  0  0
  2  1  1  0  0  0  0
  3  1  1  0  0  0  0
M  END
