123
 OpenBabel08181812023D

 12 11  0  0  0  0  0  0  0  0999 V2000
   -0.6871   -1.2093   -0.2336 C   0  0  0  0  0  0  0  0  0  0  0  0
   -0.1293    0.1565    0.0515 C   0  0  0  0  0  0  0  0  0  0  0  0
   -0.9155    1.1879    0.3846 C   0  0  0  0  0  0  0  0  0  0  0  0
    1.3746    0.3031   -0.0588 C   0  0  0  0  0  0  0  0  0  0  0  0
   -0.2569   -1.9585    0.4501 H   0  0  0  0  0  0  0  0  0  0  0  0
   -1.7790   -1.2362   -0.1340 H   0  0  0  0  0  0  0  0  0  0  0  0
   -0.4227   -1.5353   -1.2523 H   0  0  0  0  0  0  0  0  0  0  0  0
   -0.5047    2.1776    0.5906 H   0  0  0  0  0  0  0  0  0  0  0  0
   -1.9975    1.0775    0.4627 H   0  0  0  0  0  0  0  0  0  0  0  0
    1.6488    1.0522   -0.8146 H   0  0  0  0  0  0  0  0  0  0  0  0
    1.8541   -0.6427   -0.3407 H   0  0  0  0  0  0  0  0  0  0  0  0
    1.8154    0.6273    0.8943 H   0  0  0  0  0  0  0  0  0  0  0  0
  1  6  1  0  0  0  0
  1  2  1  0  0  0  0
  1  5  1  0  0  0  0
  2  3  2  0  0  0  0
  3  9  1  0  0  0  0
  3  8  1  0  0  0  0
  4  2  1  0  0  0  0
  4 12  1  0  0  0  0
  7  1  1  0  0  0  0
 10  4  1  0  0  0  0
 11  4  1  0  0  0  0
M  END
