202
 OpenBabel08181812023D

 20 19  0  0  0  0  0  0  0  0999 V2000
   -2.4223    0.8694    0.6530 C   0  0  0  0  0  0  0  0  0  0  0  0
   -1.1911    0.0662    0.2212 C   0  0  0  0  0  0  0  0  0  0  0  0
   -1.4283   -1.4404    0.3534 C   0  0  0  0  0  0  0  0  0  0  0  0
    0.0178    0.5255    1.0359 C   0  0  0  0  0  0  0  0  0  0  0  0
    1.2424   -0.1384    0.6248 O   0  0  0  0  0  0  0  0  0  0  0  0
    1.9648    0.4810   -0.3497 C   0  0  0  0  0  0  0  0  0  0  0  0
    1.6453    1.5279   -0.8749 O   0  0  0  0  0  0  0  0  0  0  0  0
    3.2156   -0.3036   -0.6586 C   0  0  0  0  0  0  0  0  0  0  0  0
   -2.6595    0.6909    1.7128 H   0  0  0  0  0  0  0  0  0  0  0  0
   -3.3021    0.5766    0.0646 H   0  0  0  0  0  0  0  0  0  0  0  0
   -2.2702    1.9489    0.5167 H   0  0  0  0  0  0  0  0  0  0  0  0
   -0.9776    0.3031   -0.8338 H   0  0  0  0  0  0  0  0  0  0  0  0
   -2.2624   -1.7622   -0.2845 H   0  0  0  0  0  0  0  0  0  0  0  0
   -0.5392   -2.0153    0.0651 H   0  0  0  0  0  0  0  0  0  0  0  0
   -1.6797   -1.7065    1.3914 H   0  0  0  0  0  0  0  0  0  0  0  0
    0.1578    1.6103    0.9446 H   0  0  0  0  0  0  0  0  0  0  0  0
   -0.1011    0.2549    2.0947 H   0  0  0  0  0  0  0  0  0  0  0  0
    3.9208   -0.2108    0.1788 H   0  0  0  0  0  0  0  0  0  0  0  0
    3.6801    0.0923   -1.5654 H   0  0  0  0  0  0  0  0  0  0  0  0
    2.9892   -1.3699   -0.7774 H   0  0  0  0  0  0  0  0  0  0  0  0
  1  9  1  0  0  0  0
  2  3  1  0  0  0  0
  2  1  1  0  0  0  0
  2  4  1  0  0  0  0
  3 15  1  0  0  0  0
  4 17  1  0  0  0  0
  5  4  1  0  0  0  0
  6  5  1  0  0  0  0
  7  6  2  0  0  0  0
  8  6  1  0  0  0  0
  8 18  1  0  0  0  0
 10  1  1  0  0  0  0
 11  1  1  0  0  0  0
 12  2  1  0  0  0  0
 13  3  1  0  0  0  0
 14  3  1  0  0  0  0
 16  4  1  0  0  0  0
 19  8  1  0  0  0  0
 20  8  1  0  0  0  0
M  END
