017
 OpenBabel08181812023D

 14 13  0  0  0  0  0  0  0  0999 V2000
   -0.4524    1.3853    0.0878 C   0  0  0  0  0  0  0  0  0  0  0  0
    0.1309    0.0480   -0.3795 C   0  0  0  0  0  0  0  0  0  0  0  0
   -0.9403   -1.0472   -0.3880 C   0  0  0  0  0  0  0  0  0  0  0  0
    1.3300   -0.3610    0.4819 C   0  0  0  0  0  0  0  0  0  0  0  0
    0.3035    2.1830    0.0659 H   0  0  0  0  0  0  0  0  0  0  0  0
   -1.2933    1.7004   -0.5460 H   0  0  0  0  0  0  0  0  0  0  0  0
   -0.8248    1.3078    1.1209 H   0  0  0  0  0  0  0  0  0  0  0  0
    0.4884    0.1789   -1.4159 H   0  0  0  0  0  0  0  0  0  0  0  0
   -1.3313   -1.2172    0.6269 H   0  0  0  0  0  0  0  0  0  0  0  0
   -0.5360   -2.0020   -0.7528 H   0  0  0  0  0  0  0  0  0  0  0  0
   -1.7896   -0.7737   -1.0300 H   0  0  0  0  0  0  0  0  0  0  0  0
    1.0254   -0.5049    1.5300 H   0  0  0  0  0  0  0  0  0  0  0  0
    1.7731   -1.3041    0.1320 H   0  0  0  0  0  0  0  0  0  0  0  0
    2.1163    0.4069    0.4666 H   0  0  0  0  0  0  0  0  0  0  0  0
  1  7  1  0  0  0  0
  2  1  1  0  0  0  0
  2  4  1  0  0  0  0
  3  2  1  0  0  0  0
  3  9  1  0  0  0  0
  4 12  1  0  0  0  0
  5  1  1  0  0  0  0
  6  1  1  0  0  0  0
  8  2  1  0  0  0  0
 10  3  1  0  0  0  0
 11  3  1  0  0  0  0
 13  4  1  0  0  0  0
 14  4  1  0  0  0  0
M  END
