151
 OpenBabel08181812023D

 15 14  0  0  0  0  0  0  0  0999 V2000
   -0.1597    1.4856   -0.0985 C   0  0  0  0  0  0  0  0  0  0  0  0
    0.1645    0.0502    0.3205 C   0  0  0  0  0  0  0  0  0  0  0  0
    1.5713   -0.3651   -0.1214 C   0  0  0  0  0  0  0  0  0  0  0  0
   -0.8674   -0.9420   -0.2282 C   0  0  0  0  0  0  0  0  0  0  0  0
   -2.2084   -0.6899    0.2020 O   0  0  0  0  0  0  0  0  0  0  0  0
   -1.1835    1.7601    0.1855 H   0  0  0  0  0  0  0  0  0  0  0  0
   -0.0731    1.5966   -1.1905 H   0  0  0  0  0  0  0  0  0  0  0  0
    0.5325    2.2016    0.3661 H   0  0  0  0  0  0  0  0  0  0  0  0
    0.1205   -0.0098    1.4244 H   0  0  0  0  0  0  0  0  0  0  0  0
    1.8158   -1.3855    0.2069 H   0  0  0  0  0  0  0  0  0  0  0  0
    2.3314    0.3125    0.2902 H   0  0  0  0  0  0  0  0  0  0  0  0
    1.6602   -0.3347   -1.2180 H   0  0  0  0  0  0  0  0  0  0  0  0
   -0.5639   -1.9742    0.0273 H   0  0  0  0  0  0  0  0  0  0  0  0
   -0.8978   -0.8726   -1.3267 H   0  0  0  0  0  0  0  0  0  0  0  0
   -2.2425   -0.8326    1.1605 H   0  0  0  0  0  0  0  0  0  0  0  0
  1  6  1  0  0  0  0
  1  2  1  0  0  0  0
  1  8  1  0  0  0  0
  2  9  1  0  0  0  0
  3 10  1  0  0  0  0
  3 11  1  0  0  0  0
  3  2  1  0  0  0  0
  4 13  1  0  0  0  0
  4  5  1  0  0  0  0
  4  2  1  0  0  0  0
  5 15  1  0  0  0  0
  7  1  1  0  0  0  0
 12  3  1  0  0  0  0
 14  4  1  0  0  0  0
M  END
