294
 OpenBabel08181812023D

 21 20  0  0  0  0  0  0  0  0999 V2000
   -2.0318   -0.0674    1.5467 C   0  0  0  0  0  0  0  0  0  0  0  0
   -1.2531   -0.3825    0.2652 C   0  0  0  0  0  0  0  0  0  0  0  0
   -1.9049    0.3053   -0.9397 C   0  0  0  0  0  0  0  0  0  0  0  0
    0.2278   -0.0015    0.4299 C   0  0  0  0  0  0  0  0  0  0  0  0
    1.1390   -0.4456   -0.7170 C   0  0  0  0  0  0  0  0  0  0  0  0
    2.6106   -0.1470   -0.4769 C   0  0  0  0  0  0  0  0  0  0  0  0
    2.7860    1.2763   -0.4238 O   0  0  0  0  0  0  0  0  0  0  0  0
   -2.0098    1.0123    1.7599 H   0  0  0  0  0  0  0  0  0  0  0  0
   -1.6038   -0.5872    2.4156 H   0  0  0  0  0  0  0  0  0  0  0  0
   -3.0857   -0.3672    1.4588 H   0  0  0  0  0  0  0  0  0  0  0  0
   -1.3014   -1.4745    0.1002 H   0  0  0  0  0  0  0  0  0  0  0  0
   -1.4144    0.0410   -1.8858 H   0  0  0  0  0  0  0  0  0  0  0  0
   -2.9640    0.0240   -1.0267 H   0  0  0  0  0  0  0  0  0  0  0  0
   -1.8582    1.4000   -0.8327 H   0  0  0  0  0  0  0  0  0  0  0  0
    0.6021   -0.4478    1.3674 H   0  0  0  0  0  0  0  0  0  0  0  0
    0.3085    1.0899    0.5575 H   0  0  0  0  0  0  0  0  0  0  0  0
    1.0366   -1.5326   -0.8736 H   0  0  0  0  0  0  0  0  0  0  0  0
    0.8415    0.0387   -1.6595 H   0  0  0  0  0  0  0  0  0  0  0  0
    2.9382   -0.6127    0.4719 H   0  0  0  0  0  0  0  0  0  0  0  0
    3.2169   -0.5804   -1.2928 H   0  0  0  0  0  0  0  0  0  0  0  0
    3.7199    1.4592   -0.2447 H   0  0  0  0  0  0  0  0  0  0  0  0
  1  8  1  0  0  0  0
  1  9  1  0  0  0  0
  2  4  1  0  0  0  0
  2  1  1  0  0  0  0
  3 14  1  0  0  0  0
  3  2  1  0  0  0  0
  4 16  1  0  0  0  0
  4 15  1  0  0  0  0
  5  6  1  0  0  0  0
  5  4  1  0  0  0  0
  6  7  1  0  0  0  0
  6 19  1  0  0  0  0
  7 21  1  0  0  0  0
 10  1  1  0  0  0  0
 11  2  1  0  0  0  0
 12  3  1  0  0  0  0
 13  3  1  0  0  0  0
 17  5  1  0  0  0  0
 18  5  1  0  0  0  0
 20  6  1  0  0  0  0
M  END
