639
 OpenBabel08181812023D

 23 22  0  0  0  0  0  0  0  0999 V2000
    3.2175   -0.7036   -0.1874 C   0  0  0  0  0  0  0  0  0  0  0  0
    2.1620    0.1652    0.4964 C   0  0  0  0  0  0  0  0  0  0  0  0
    0.7439   -0.0806   -0.0272 C   0  0  0  0  0  0  0  0  0  0  0  0
   -0.3052    0.7949    0.6648 C   0  0  0  0  0  0  0  0  0  0  0  0
   -1.7665    0.6165    0.2022 C   0  0  0  0  0  0  0  0  0  0  0  0
   -2.3062   -0.7905    0.4849 C   0  0  0  0  0  0  0  0  0  0  0  0
   -1.9693    0.9981   -1.2689 C   0  0  0  0  0  0  0  0  0  0  0  0
    4.2232   -0.5058    0.2078 H   0  0  0  0  0  0  0  0  0  0  0  0
    3.2433   -0.5183   -1.2711 H   0  0  0  0  0  0  0  0  0  0  0  0
    3.0070   -1.7731   -0.0414 H   0  0  0  0  0  0  0  0  0  0  0  0
    2.1822   -0.0160    1.5838 H   0  0  0  0  0  0  0  0  0  0  0  0
    2.4170    1.2296    0.3633 H   0  0  0  0  0  0  0  0  0  0  0  0
    0.4960   -1.1462    0.1076 H   0  0  0  0  0  0  0  0  0  0  0  0
    0.7310    0.1012   -1.1144 H   0  0  0  0  0  0  0  0  0  0  0  0
   -0.2596    0.6071    1.7512 H   0  0  0  0  0  0  0  0  0  0  0  0
   -0.0251    1.8536    0.5296 H   0  0  0  0  0  0  0  0  0  0  0  0
   -2.3636    1.3213    0.8063 H   0  0  0  0  0  0  0  0  0  0  0  0
   -1.7966   -1.5493   -0.1263 H   0  0  0  0  0  0  0  0  0  0  0  0
   -2.1746   -1.0667    1.5410 H   0  0  0  0  0  0  0  0  0  0  0  0
   -3.3789   -0.8523    0.2535 H   0  0  0  0  0  0  0  0  0  0  0  0
   -3.0351    0.9734   -1.5367 H   0  0  0  0  0  0  0  0  0  0  0  0
   -1.5949    2.0109   -1.4766 H   0  0  0  0  0  0  0  0  0  0  0  0
   -1.4477    0.3030   -1.9425 H   0  0  0  0  0  0  0  0  0  0  0  0
  1 10  1  0  0  0  0
  1  8  1  0  0  0  0
  1  2  1  0  0  0  0
  2 11  1  0  0  0  0
  3 13  1  0  0  0  0
  3  2  1  0  0  0  0
  3  4  1  0  0  0  0
  4 15  1  0  0  0  0
  5  6  1  0  0  0  0
  5  4  1  0  0  0  0
  5 17  1  0  0  0  0
  6 19  1  0  0  0  0
  7  5  1  0  0  0  0
  9  1  1  0  0  0  0
 12  2  1  0  0  0  0
 14  3  1  0  0  0  0
 16  4  1  0  0  0  0
 18  6  1  0  0  0  0
 20  6  1  0  0  0  0
 21  7  1  0  0  0  0
 22  7  1  0  0  0  0
 23  7  1  0  0  0  0
M  END
