201
 OpenBabel08181812023D

 17 16  0  0  0  0  0  0  0  0999 V2000
   -1.7242   -1.0231   -0.4290 C   0  0  0  0  0  0  0  0  0  0  0  0
   -0.8986    0.1010    0.1767 C   0  0  0  0  0  0  0  0  0  0  0  0
   -1.4363    1.4885   -0.1356 C   0  0  0  0  0  0  0  0  0  0  0  0
    0.4497    0.0168   -0.3917 O   0  0  0  0  0  0  0  0  0  0  0  0
    1.4778   -0.2460    0.4600 C   0  0  0  0  0  0  0  0  0  0  0  0
    1.3612   -0.4034    1.6588 O   0  0  0  0  0  0  0  0  0  0  0  0
    2.7831   -0.3389   -0.2911 C   0  0  0  0  0  0  0  0  0  0  0  0
   -1.7743   -0.9259   -1.5222 H   0  0  0  0  0  0  0  0  0  0  0  0
   -2.7483   -0.9938   -0.0334 H   0  0  0  0  0  0  0  0  0  0  0  0
   -1.2923   -2.0017   -0.1846 H   0  0  0  0  0  0  0  0  0  0  0  0
   -0.7996   -0.0379    1.2617 H   0  0  0  0  0  0  0  0  0  0  0  0
   -2.4498    1.6004    0.2721 H   0  0  0  0  0  0  0  0  0  0  0  0
   -1.4810    1.6557   -1.2205 H   0  0  0  0  0  0  0  0  0  0  0  0
   -0.8010    2.2636    0.3110 H   0  0  0  0  0  0  0  0  0  0  0  0
    3.0020   -1.3990   -0.4813 H   0  0  0  0  0  0  0  0  0  0  0  0
    3.5878    0.0602    0.3348 H   0  0  0  0  0  0  0  0  0  0  0  0
    2.7434    0.1837   -1.2519 H   0  0  0  0  0  0  0  0  0  0  0  0
  1 10  1  0  0  0  0
  1  9  1  0  0  0  0
  1  2  1  0  0  0  0
  2 11  1  0  0  0  0
  3  2  1  0  0  0  0
  3 12  1  0  0  0  0
  3 14  1  0  0  0  0
  4  2  1  0  0  0  0
  4  5  1  0  0  0  0
  5  6  2  0  0  0  0
  7 16  1  0  0  0  0
  7  5  1  0  0  0  0
  8  1  1  0  0  0  0
 13  3  1  0  0  0  0
 15  7  1  0  0  0  0
 17  7  1  0  0  0  0
M  END
