206
 OpenBabel08181812023D

 12 11  0  0  0  0  0  0  0  0999 V2000
    1.2281    0.0859    0.5906 C   0  0  0  0  0  0  0  0  0  0  0  0
    0.0689    0.1686   -0.4186 C   0  0  0  0  0  0  0  0  0  0  0  0
   -0.9900   -0.9228   -0.1807 C   0  0  0  0  0  0  0  0  0  0  0  0
   -0.5468    1.4977   -0.3860 C   0  0  0  0  0  0  0  0  0  0  0  0
   -1.0392    2.5501   -0.3464 N   0  0  0  0  0  0  0  0  0  0  0  0
    0.8591    0.2203    1.6154 H   0  0  0  0  0  0  0  0  0  0  0  0
    1.7060   -0.8997    0.5212 H   0  0  0  0  0  0  0  0  0  0  0  0
    1.9843    0.8549    0.3940 H   0  0  0  0  0  0  0  0  0  0  0  0
    0.4791    0.0433   -1.4344 H   0  0  0  0  0  0  0  0  0  0  0  0
   -1.4320   -0.8216    0.8187 H   0  0  0  0  0  0  0  0  0  0  0  0
   -0.5206   -1.9122   -0.2531 H   0  0  0  0  0  0  0  0  0  0  0  0
   -1.7968   -0.8645   -0.9207 H   0  0  0  0  0  0  0  0  0  0  0  0
  1  6  1  0  0  0  0
  2  4  1  0  0  0  0
  2  3  1  0  0  0  0
  2  1  1  0  0  0  0
  3 10  1  0  0  0  0
  4  5  3  0  0  0  0
  7  1  1  0  0  0  0
  8  1  1  0  0  0  0
  9  2  1  0  0  0  0
 11  3  1  0  0  0  0
 12  3  1  0  0  0  0
M  END
