315
 OpenBabel08181812023D

 18 18  0  0  0  0  0  0  0  0999 V2000
    3.2660   -0.7619    0.9373 C   0  0  0  0  0  0  0  0  0  0  0  0
    2.4163    0.1165    0.0538 C   0  0  0  0  0  0  0  0  0  0  0  0
    2.8438    0.9417   -0.7276 O   0  0  0  0  0  0  0  0  0  0  0  0
    1.0910   -0.1305    0.2396 O   0  0  0  0  0  0  0  0  0  0  0  0
    0.1985    0.6938   -0.5767 C   0  0  0  0  0  0  0  0  0  0  0  0
   -1.1939    0.2511   -0.3714 C   0  0  0  0  0  0  0  0  0  0  0  0
   -2.0488   -0.5198   -1.1116 C   0  0  0  0  0  0  0  0  0  0  0  0
   -3.2747   -0.5938   -0.3808 C   0  0  0  0  0  0  0  0  0  0  0  0
   -3.0811    0.1373    0.7553 C   0  0  0  0  0  0  0  0  0  0  0  0
   -1.8229    0.6638    0.7794 O   0  0  0  0  0  0  0  0  0  0  0  0
    2.6662   -1.4634    1.5238 H   0  0  0  0  0  0  0  0  0  0  0  0
    3.9787   -1.3107    0.3099 H   0  0  0  0  0  0  0  0  0  0  0  0
    3.8505   -0.1224    1.6110 H   0  0  0  0  0  0  0  0  0  0  0  0
    0.4827    0.5895   -1.6311 H   0  0  0  0  0  0  0  0  0  0  0  0
    0.3406    1.7441   -0.2870 H   0  0  0  0  0  0  0  0  0  0  0  0
   -1.8236   -0.9808   -2.0672 H   0  0  0  0  0  0  0  0  0  0  0  0
   -4.1811   -1.1175   -0.6624 H   0  0  0  0  0  0  0  0  0  0  0  0
   -3.7078    0.3771    1.6056 H   0  0  0  0  0  0  0  0  0  0  0  0
  1 11  1  0  0  0  0
  1 13  1  0  0  0  0
  2  4  1  0  0  0  0
  2  1  1  0  0  0  0
  3  2  2  0  0  0  0
  5  6  1  0  0  0  0
  5 15  1  0  0  0  0
  5  4  1  0  0  0  0
  6 10  1  0  0  0  0
  7  8  1  0  0  0  0
  7  6  2  0  0  0  0
  8  9  2  0  0  0  0
  9 10  1  0  0  0  0
  9 18  1  0  0  0  0
 12  1  1  0  0  0  0
 14  5  1  0  0  0  0
 16  7  1  0  0  0  0
 17  8  1  0  0  0  0
M  END
