284
 OpenBabel08181812023D

 16 16  0  0  0  0  0  0  0  0999 V2000
   -2.3365    0.1767    0.0501 C   0  0  0  0  0  0  0  0  0  0  0  0
   -0.8506   -0.0716    0.0194 C   0  0  0  0  0  0  0  0  0  0  0  0
   -0.3424   -1.3784    0.0193 C   0  0  0  0  0  0  0  0  0  0  0  0
    1.0350   -1.5988   -0.0091 C   0  0  0  0  0  0  0  0  0  0  0  0
    1.9330   -0.5327   -0.0380 C   0  0  0  0  0  0  0  0  0  0  0  0
    1.4331    0.7717   -0.0382 C   0  0  0  0  0  0  0  0  0  0  0  0
    0.0516    0.9972   -0.0097 C   0  0  0  0  0  0  0  0  0  0  0  0
    2.3411    1.8007   -0.0671 O   0  0  0  0  0  0  0  0  0  0  0  0
   -2.8326   -0.2785   -0.8190 H   0  0  0  0  0  0  0  0  0  0  0  0
   -2.7937   -0.2634    0.9479 H   0  0  0  0  0  0  0  0  0  0  0  0
   -2.5675    1.2491    0.0460 H   0  0  0  0  0  0  0  0  0  0  0  0
   -1.0298   -2.2249    0.0417 H   0  0  0  0  0  0  0  0  0  0  0  0
    1.4194   -2.6192   -0.0089 H   0  0  0  0  0  0  0  0  0  0  0  0
    3.0100   -0.6926   -0.0605 H   0  0  0  0  0  0  0  0  0  0  0  0
   -0.3264    2.0235   -0.0102 H   0  0  0  0  0  0  0  0  0  0  0  0
    1.8563    2.6413   -0.0637 H   0  0  0  0  0  0  0  0  0  0  0  0
  1 10  1  0  0  0  0
  2  1  1  0  0  0  0
  3  2  1  0  0  0  0
  3 12  1  0  0  0  0
  4 13  1  0  0  0  0
  4  3  2  0  0  0  0
  5  4  1  0  0  0  0
  6  5  2  0  0  0  0
  6  7  1  0  0  0  0
  7  2  2  0  0  0  0
  8 16  1  0  0  0  0
  8  6  1  0  0  0  0
  9  1  1  0  0  0  0
 11  1  1  0  0  0  0
 14  5  1  0  0  0  0
 15  7  1  0  0  0  0
M  END
