537
 OpenBabel08181812023D

 17 17  0  0  0  0  0  0  0  0999 V2000
    2.8884   -0.4781    0.2901 C   0  0  0  0  0  0  0  0  0  0  0  0
    2.0487    0.6167   -0.0500 O   0  0  0  0  0  0  0  0  0  0  0  0
    0.6938    0.3965   -0.0402 C   0  0  0  0  0  0  0  0  0  0  0  0
   -0.1086    1.4964   -0.3803 C   0  0  0  0  0  0  0  0  0  0  0  0
   -1.4922    1.3838   -0.4019 C   0  0  0  0  0  0  0  0  0  0  0  0
   -2.1032    0.1644   -0.0826 C   0  0  0  0  0  0  0  0  0  0  0  0
   -1.3101   -0.9309    0.2558 C   0  0  0  0  0  0  0  0  0  0  0  0
    0.0858   -0.8215    0.2788 C   0  0  0  0  0  0  0  0  0  0  0  0
   -3.4782    0.1130   -0.1211 O   0  0  0  0  0  0  0  0  0  0  0  0
    2.7630   -1.3189   -0.4118 H   0  0  0  0  0  0  0  0  0  0  0  0
    3.9147   -0.1026    0.2240 H   0  0  0  0  0  0  0  0  0  0  0  0
    2.6965   -0.8332    1.3160 H   0  0  0  0  0  0  0  0  0  0  0  0
    0.3764    2.4404   -0.6270 H   0  0  0  0  0  0  0  0  0  0  0  0
   -2.1163    2.2369   -0.6656 H   0  0  0  0  0  0  0  0  0  0  0  0
   -1.7763   -1.8865    0.5063 H   0  0  0  0  0  0  0  0  0  0  0  0
    0.6783   -1.6936    0.5468 H   0  0  0  0  0  0  0  0  0  0  0  0
   -3.7608   -0.7830    0.1201 H   0  0  0  0  0  0  0  0  0  0  0  0
  1 12  1  0  0  0  0
  2  3  1  0  0  0  0
  2  1  1  0  0  0  0
  3  8  2  0  0  0  0
  4  3  1  0  0  0  0
  5  4  2  0  0  0  0
  5  6  1  0  0  0  0
  6  7  2  0  0  0  0
  7  8  1  0  0  0  0
  7 15  1  0  0  0  0
  8 16  1  0  0  0  0
  9  6  1  0  0  0  0
  9 17  1  0  0  0  0
 10  1  1  0  0  0  0
 11  1  1  0  0  0  0
 13  4  1  0  0  0  0
 14  5  1  0  0  0  0
M  END
