453
 OpenBabel08181812023D

 15 14  0  0  0  0  0  0  0  0999 V2000
    2.2774    0.3093    0.3023 C   0  0  0  0  0  0  0  0  0  0  0  0
    1.1092   -0.4445   -0.3329 C   0  0  0  0  0  0  0  0  0  0  0  0
   -0.2364    0.1199    0.0917 C   0  0  0  0  0  0  0  0  0  0  0  0
   -1.2754   -0.6233   -0.5324 O   0  0  0  0  0  0  0  0  0  0  0  0
   -2.5597   -0.1463   -0.1776 C   0  0  0  0  0  0  0  0  0  0  0  0
    3.2396   -0.1121   -0.0157 H   0  0  0  0  0  0  0  0  0  0  0  0
    2.2711    1.3719    0.0194 H   0  0  0  0  0  0  0  0  0  0  0  0
    2.2394    0.2578    1.3999 H   0  0  0  0  0  0  0  0  0  0  0  0
    1.1779   -0.4012   -1.4302 H   0  0  0  0  0  0  0  0  0  0  0  0
    1.1464   -1.5091   -0.0573 H   0  0  0  0  0  0  0  0  0  0  0  0
   -0.3451    0.0695    1.1948 H   0  0  0  0  0  0  0  0  0  0  0  0
   -0.3129    1.1897   -0.1927 H   0  0  0  0  0  0  0  0  0  0  0  0
   -2.7018    0.9074   -0.4829 H   0  0  0  0  0  0  0  0  0  0  0  0
   -3.2953   -0.7705   -0.6984 H   0  0  0  0  0  0  0  0  0  0  0  0
   -2.7344   -0.2184    0.9123 H   0  0  0  0  0  0  0  0  0  0  0  0
  1  8  1  0  0  0  0
  2 10  1  0  0  0  0
  2  3  1  0  0  0  0
  2  1  1  0  0  0  0
  3 11  1  0  0  0  0
  4  5  1  0  0  0  0
  4  3  1  0  0  0  0
  5 15  1  0  0  0  0
  6  1  1  0  0  0  0
  7  1  1  0  0  0  0
  9  2  1  0  0  0  0
 12  3  1  0  0  0  0
 13  5  1  0  0  0  0
 14  5  1  0  0  0  0
M  END
