636
 OpenBabel08181812023D

 16 15  0  0  0  0  0  0  0  0999 V2000
   -3.0354   -0.1384    0.0204 C   0  0  0  0  0  0  0  0  0  0  0  0
   -1.5475   -0.1259    0.1594 C   0  0  0  0  0  0  0  0  0  0  0  0
   -0.6799   -0.4327   -0.8214 C   0  0  0  0  0  0  0  0  0  0  0  0
    0.7789   -0.3989   -0.7311 C   0  0  0  0  0  0  0  0  0  0  0  0
    1.5119    0.4224    0.0414 C   0  0  0  0  0  0  0  0  0  0  0  0
    3.0036    0.4061    0.1325 C   0  0  0  0  0  0  0  0  0  0  0  0
   -3.4620    0.8587    0.2150 H   0  0  0  0  0  0  0  0  0  0  0  0
   -3.5016   -0.8192    0.7499 H   0  0  0  0  0  0  0  0  0  0  0  0
   -3.3459   -0.4479   -0.9862 H   0  0  0  0  0  0  0  0  0  0  0  0
   -1.1520    0.1452    1.1438 H   0  0  0  0  0  0  0  0  0  0  0  0
   -1.0904   -0.7659   -1.7815 H   0  0  0  0  0  0  0  0  0  0  0  0
    1.3137   -1.1002   -1.3818 H   0  0  0  0  0  0  0  0  0  0  0  0
    0.9940    1.1731    0.6477 H   0  0  0  0  0  0  0  0  0  0  0  0
    3.4404   -0.3586   -0.5235 H   0  0  0  0  0  0  0  0  0  0  0  0
    3.4341    1.3825   -0.1410 H   0  0  0  0  0  0  0  0  0  0  0  0
    3.3381    0.1997    1.1619 H   0  0  0  0  0  0  0  0  0  0  0  0
  1  2  1  0  0  0  0
  1  7  1  0  0  0  0
  1  8  1  0  0  0  0
  2 10  1  0  0  0  0
  3  4  1  0  0  0  0
  3  2  2  0  0  0  0
  4  5  2  0  0  0  0
  5  6  1  0  0  0  0
  5 13  1  0  0  0  0
  6 16  1  0  0  0  0
  9  1  1  0  0  0  0
 11  3  1  0  0  0  0
 12  4  1  0  0  0  0
 14  6  1  0  0  0  0
 15  6  1  0  0  0  0
M  END
