459
 OpenBabel08181812023D

 12 11  0  0  0  0  0  0  0  0999 V2000
    2.0501    0.1397    0.4569 C   0  0  0  0  0  0  0  0  0  0  0  0
    0.6100    0.1182    0.4874 O   0  0  0  0  0  0  0  0  0  0  0  0
    0.0209   -0.1541   -0.7078 C   0  0  0  0  0  0  0  0  0  0  0  0
    0.6456   -0.3654   -1.7321 O   0  0  0  0  0  0  0  0  0  0  0  0
   -1.4596   -0.1670   -0.6345 C   0  0  0  0  0  0  0  0  0  0  0  0
   -2.1783    0.0601    0.4696 C   0  0  0  0  0  0  0  0  0  0  0  0
    2.4096    0.9081   -0.2387 H   0  0  0  0  0  0  0  0  0  0  0  0
    2.4436   -0.8347    0.1416 H   0  0  0  0  0  0  0  0  0  0  0  0
    2.3611    0.3689    1.4800 H   0  0  0  0  0  0  0  0  0  0  0  0
   -1.9353   -0.3850   -1.5909 H   0  0  0  0  0  0  0  0  0  0  0  0
   -1.7005    0.2777    1.4238 H   0  0  0  0  0  0  0  0  0  0  0  0
   -3.2674    0.0334    0.4446 H   0  0  0  0  0  0  0  0  0  0  0  0
  1  2  1  0  0  0  0
  1  9  1  0  0  0  0
  3  5  1  0  0  0  0
  3  2  1  0  0  0  0
  4  3  2  0  0  0  0
  5  6  2  0  0  0  0
  6 11  1  0  0  0  0
  7  1  1  0  0  0  0
  8  1  1  0  0  0  0
 10  5  1  0  0  0  0
 12  6  1  0  0  0  0
M  END
