428
 OpenBabel08181812023D

 12 11  0  0  0  0  0  0  0  0999 V2000
   -1.8762   -0.5511    0.1566 C   0  0  0  0  0  0  0  0  0  0  0  0
   -0.4580   -0.5670    0.4374 O   0  0  0  0  0  0  0  0  0  0  0  0
    0.2806    0.3646   -0.2087 C   0  0  0  0  0  0  0  0  0  0  0  0
    1.7628    0.1892    0.2022 C   0  0  0  0  0  0  0  0  0  0  0  0
    2.7671    1.4647   -0.5171 Cl  0  0  0  0  0  0  0  0  0  0  0  0
    2.3491   -1.4316   -0.2340 Cl  0  0  0  0  0  0  0  0  0  0  0  0
   -0.1147    1.6455    0.1381 F   0  0  0  0  0  0  0  0  0  0  0  0
    0.1320    0.2967   -1.5710 F   0  0  0  0  0  0  0  0  0  0  0  0
   -2.3167    0.4125    0.4411 H   0  0  0  0  0  0  0  0  0  0  0  0
   -2.2971   -1.3511    0.7708 H   0  0  0  0  0  0  0  0  0  0  0  0
   -2.0610   -0.7564   -0.9047 H   0  0  0  0  0  0  0  0  0  0  0  0
    1.8317    0.2839    1.2893 H   0  0  0  0  0  0  0  0  0  0  0  0
  1  2  1  0  0  0  0
  1  9  1  0  0  0  0
  1 10  1  0  0  0  0
  3  7  1  0  0  0  0
  3  4  1  0  0  0  0
  3  2  1  0  0  0  0
  4 12  1  0  0  0  0
  5  4  1  0  0  0  0
  6  4  1  0  0  0  0
  8  3  1  0  0  0  0
 11  1  1  0  0  0  0
M  END
