343
 OpenBabel08181812023D

 18 18  0  0  0  0  0  0  0  0999 V2000
    3.4477   -0.0386    0.2818 C   0  0  0  0  0  0  0  0  0  0  0  0
    2.0572    0.3367    0.2814 O   0  0  0  0  0  0  0  0  0  0  0  0
    1.2019   -0.6501   -0.1020 C   0  0  0  0  0  0  0  0  0  0  0  0
    1.5732   -1.7646   -0.4212 O   0  0  0  0  0  0  0  0  0  0  0  0
   -0.2201   -0.2018   -0.0824 C   0  0  0  0  0  0  0  0  0  0  0  0
   -0.5966    1.0960    0.2942 C   0  0  0  0  0  0  0  0  0  0  0  0
   -1.9426    1.4582    0.2935 C   0  0  0  0  0  0  0  0  0  0  0  0
   -2.9185    0.5316   -0.0815 C   0  0  0  0  0  0  0  0  0  0  0  0
   -2.5467   -0.7621   -0.4572 C   0  0  0  0  0  0  0  0  0  0  0  0
   -1.2031   -1.1284   -0.4580 C   0  0  0  0  0  0  0  0  0  0  0  0
    3.6216   -0.8732    0.9721 H   0  0  0  0  0  0  0  0  0  0  0  0
    3.9907    0.8527    0.6089 H   0  0  0  0  0  0  0  0  0  0  0  0
    3.7663   -0.3390   -0.7240 H   0  0  0  0  0  0  0  0  0  0  0  0
    0.1678    1.8135    0.5853 H   0  0  0  0  0  0  0  0  0  0  0  0
   -2.2319    2.4674    0.5866 H   0  0  0  0  0  0  0  0  0  0  0  0
   -3.9704    0.8183   -0.0809 H   0  0  0  0  0  0  0  0  0  0  0  0
   -3.3073   -1.4858   -0.7499 H   0  0  0  0  0  0  0  0  0  0  0  0
   -0.8892   -2.1308   -0.7468 H   0  0  0  0  0  0  0  0  0  0  0  0
  1 12  1  0  0  0  0
  1 11  1  0  0  0  0
  2  1  1  0  0  0  0
  3  5  1  0  0  0  0
  3  2  1  0  0  0  0
  4  3  2  0  0  0  0
  5  6  2  0  0  0  0
  6 14  1  0  0  0  0
  7  6  1  0  0  0  0
  7 15  1  0  0  0  0
  8 16  1  0  0  0  0
  8  7  2  0  0  0  0
  9  8  1  0  0  0  0
 10  9  2  0  0  0  0
 10  5  1  0  0  0  0
 13  1  1  0  0  0  0
 17  9  1  0  0  0  0
 18 10  1  0  0  0  0
M  END
