464
 OpenBabel08181812023D

 13 12  0  0  0  0  0  0  0  0999 V2000
    2.0804    0.1300   -0.0622 C   0  0  0  0  0  0  0  0  0  0  0  0
    0.7678   -0.3514   -0.2921 O   0  0  0  0  0  0  0  0  0  0  0  0
   -0.1475    0.0842    0.6994 C   0  0  0  0  0  0  0  0  0  0  0  0
   -1.5195   -0.4949    0.3713 C   0  0  0  0  0  0  0  0  0  0  0  0
   -2.4999   -0.1148    1.3379 O   0  0  0  0  0  0  0  0  0  0  0  0
    2.4757   -0.2180    0.9098 H   0  0  0  0  0  0  0  0  0  0  0  0
    2.7150   -0.2595   -0.8666 H   0  0  0  0  0  0  0  0  0  0  0  0
    2.1154    1.2351   -0.0786 H   0  0  0  0  0  0  0  0  0  0  0  0
   -0.1991    1.1936    0.7189 H   0  0  0  0  0  0  0  0  0  0  0  0
    0.1688   -0.2497    1.7063 H   0  0  0  0  0  0  0  0  0  0  0  0
   -1.4727   -1.5915    0.3976 H   0  0  0  0  0  0  0  0  0  0  0  0
   -1.8134   -0.1968   -0.6496 H   0  0  0  0  0  0  0  0  0  0  0  0
   -2.6710    0.8339    1.2350 H   0  0  0  0  0  0  0  0  0  0  0  0
  1  6  1  0  0  0  0
  2  1  1  0  0  0  0
  2  3  1  0  0  0  0
  3  9  1  0  0  0  0
  3 10  1  0  0  0  0
  4 11  1  0  0  0  0
  4  3  1  0  0  0  0
  4  5  1  0  0  0  0
  7  1  1  0  0  0  0
  8  1  1  0  0  0  0
 12  4  1  0  0  0  0
 13  5  1  0  0  0  0
M  END
