197
 OpenBabel08181812023D

  8  7  0  0  0  0  0  0  0  0999 V2000
   -1.0309   -0.1271   -0.0503 C   0  0  0  0  0  0  0  0  0  0  0  0
    0.2719   -0.6908   -0.3302 O   0  0  0  0  0  0  0  0  0  0  0  0
    1.3156    0.0849    0.0276 C   0  0  0  0  0  0  0  0  0  0  0  0
    1.2475    1.1746    0.5448 O   0  0  0  0  0  0  0  0  0  0  0  0
   -1.1604    0.8194   -0.5885 H   0  0  0  0  0  0  0  0  0  0  0  0
   -1.7517   -0.8720   -0.3966 H   0  0  0  0  0  0  0  0  0  0  0  0
   -1.1448    0.0543    1.0251 H   0  0  0  0  0  0  0  0  0  0  0  0
    2.2527   -0.4432   -0.2320 H   0  0  0  0  0  0  0  0  0  0  0  0
  1  7  1  0  0  0  0
  2  1  1  0  0  0  0
  2  3  1  0  0  0  0
  3  4  2  0  0  0  0
  5  1  1  0  0  0  0
  6  1  1  0  0  0  0
  8  3  1  0  0  0  0
M  END
