043
 OpenBabel08181812023D

  5  4  0  0  0  0  0  0  0  0999 V2000
   -0.2356    0.0070    0.0006 C   0  0  0  0  0  0  0  0  0  0  0  0
    1.9231   -0.0573   -0.0045 I   0  0  0  0  0  0  0  0  0  0  0  0
   -0.5608   -0.0072    1.0418 H   0  0  0  0  0  0  0  0  0  0  0  0
   -0.5902   -0.8720   -0.5397 H   0  0  0  0  0  0  0  0  0  0  0  0
   -0.5365    0.9295   -0.4982 H   0  0  0  0  0  0  0  0  0  0  0  0
  1  3  1  0  0  0  0
  2  1  1  0  0  0  0
  4  1  1  0  0  0  0
  5  1  1  0  0  0  0
M  END
