221
 OpenBabel08181812023D

 17 17  0  0  0  0  0  0  0  0999 V2000
    1.8190    0.1303   -0.3503 C   0  0  0  0  0  0  0  0  0  0  0  0
    0.8078   -0.6263    0.3878 N   0  0  0  0  0  0  0  0  0  0  0  0
    0.0226    0.2228    1.2959 C   0  0  0  0  0  0  0  0  0  0  0  0
   -1.1012    0.8790    0.4467 C   0  0  0  0  0  0  0  0  0  0  0  0
   -1.2652   -0.0800   -0.7604 C   0  0  0  0  0  0  0  0  0  0  0  0
   -0.2203   -1.1989   -0.4937 C   0  0  0  0  0  0  0  0  0  0  0  0
    1.4199    0.9673   -0.9610 H   0  0  0  0  0  0  0  0  0  0  0  0
    2.3595   -0.5492   -1.0224 H   0  0  0  0  0  0  0  0  0  0  0  0
    2.5468    0.5474    0.3581 H   0  0  0  0  0  0  0  0  0  0  0  0
   -0.4232   -0.4233    2.0686 H   0  0  0  0  0  0  0  0  0  0  0  0
    0.6715    0.9474    1.8039 H   0  0  0  0  0  0  0  0  0  0  0  0
   -0.8092    1.8835    0.1140 H   0  0  0  0  0  0  0  0  0  0  0  0
   -2.0278    0.9906    1.0242 H   0  0  0  0  0  0  0  0  0  0  0  0
   -1.0564    0.4380   -1.7053 H   0  0  0  0  0  0  0  0  0  0  0  0
   -2.2807   -0.4890   -0.8378 H   0  0  0  0  0  0  0  0  0  0  0  0
    0.2357   -1.6030   -1.4063 H   0  0  0  0  0  0  0  0  0  0  0  0
   -0.6988   -2.0366    0.0379 H   0  0  0  0  0  0  0  0  0  0  0  0
  1  9  1  0  0  0  0
  1  2  1  0  0  0  0
  2  3  1  0  0  0  0
  3 11  1  0  0  0  0
  3 10  1  0  0  0  0
  4 13  1  0  0  0  0
  4  3  1  0  0  0  0
  5  6  1  0  0  0  0
  5  4  1  0  0  0  0
  6 17  1  0  0  0  0
  6  2  1  0  0  0  0
  7  1  1  0  0  0  0
  8  1  1  0  0  0  0
 12  4  1  0  0  0  0
 14  5  1  0  0  0  0
 15  5  1  0  0  0  0
 16  6  1  0  0  0  0
M  END
