071
 OpenBabel08181812023D

 23 22  0  0  0  0  0  0  0  0999 V2000
   -3.1680    0.0009    0.3871 C   0  0  0  0  0  0  0  0  0  0  0  0
   -1.9730   -0.4713   -0.4428 C   0  0  0  0  0  0  0  0  0  0  0  0
   -0.8899    0.5962   -0.6540 C   0  0  0  0  0  0  0  0  0  0  0  0
   -0.2168    1.1277    0.6191 C   0  0  0  0  0  0  0  0  0  0  0  0
    0.5115    0.0585    1.4556 C   0  0  0  0  0  0  0  0  0  0  0  0
    1.5895   -0.6772    0.6896 C   0  0  0  0  0  0  0  0  0  0  0  0
    1.5959   -1.8649    0.4353 O   0  0  0  0  0  0  0  0  0  0  0  0
    2.5793    0.1745    0.3009 O   0  0  0  0  0  0  0  0  0  0  0  0
    3.6474   -0.4352   -0.4515 C   0  0  0  0  0  0  0  0  0  0  0  0
   -3.6348    0.8919   -0.0586 H   0  0  0  0  0  0  0  0  0  0  0  0
   -2.8806    0.2598    1.4159 H   0  0  0  0  0  0  0  0  0  0  0  0
   -3.9379   -0.7797    0.4524 H   0  0  0  0  0  0  0  0  0  0  0  0
   -1.5284   -1.3667    0.0183 H   0  0  0  0  0  0  0  0  0  0  0  0
   -2.3285   -0.7964   -1.4327 H   0  0  0  0  0  0  0  0  0  0  0  0
   -1.3316    1.4524   -1.1897 H   0  0  0  0  0  0  0  0  0  0  0  0
   -0.1170    0.1877   -1.3255 H   0  0  0  0  0  0  0  0  0  0  0  0
    0.5044    1.9094    0.3416 H   0  0  0  0  0  0  0  0  0  0  0  0
   -0.9626    1.6130    1.2663 H   0  0  0  0  0  0  0  0  0  0  0  0
   -0.1857   -0.7004    1.8294 H   0  0  0  0  0  0  0  0  0  0  0  0
    0.9789    0.5431    2.3256 H   0  0  0  0  0  0  0  0  0  0  0  0
    3.2606   -0.8953   -1.3692 H   0  0  0  0  0  0  0  0  0  0  0  0
    4.1488   -1.2063    0.1462 H   0  0  0  0  0  0  0  0  0  0  0  0
    4.3387    0.3781   -0.6897 H   0  0  0  0  0  0  0  0  0  0  0  0
  1 12  1  0  0  0  0
  1 11  1  0  0  0  0
  2 13  1  0  0  0  0
  2  1  1  0  0  0  0
  3  2  1  0  0  0  0
  3  4  1  0  0  0  0
  4 18  1  0  0  0  0
  4  5  1  0  0  0  0
  5 19  1  0  0  0  0
  5 20  1  0  0  0  0
  6  5  1  0  0  0  0
  7  6  2  0  0  0  0
  8  6  1  0  0  0  0
  9 22  1  0  0  0  0
  9  8  1  0  0  0  0
 10  1  1  0  0  0  0
 14  2  1  0  0  0  0
 15  3  1  0  0  0  0
 16  3  1  0  0  0  0
 17  4  1  0  0  0  0
 21  9  1  0  0  0  0
 23  9  1  0  0  0  0
M  END
