217
 OpenBabel08181812023D

 18 18  0  0  0  0  0  0  0  0999 V2000
    2.4604   -1.0556   -0.0552 C   0  0  0  0  0  0  0  0  0  0  0  0
    1.2121   -0.2122   -0.0247 C   0  0  0  0  0  0  0  0  0  0  0  0
    1.2943    1.1879   -0.0039 C   0  0  0  0  0  0  0  0  0  0  0  0
    0.1364    1.9630    0.0186 C   0  0  0  0  0  0  0  0  0  0  0  0
   -1.1204    1.3548    0.0236 C   0  0  0  0  0  0  0  0  0  0  0  0
   -1.2338   -0.0403    0.0073 C   0  0  0  0  0  0  0  0  0  0  0  0
   -0.0568   -0.8021   -0.0198 C   0  0  0  0  0  0  0  0  0  0  0  0
   -2.5832   -0.7095    0.0444 C   0  0  0  0  0  0  0  0  0  0  0  0
    3.0935   -0.8622    0.8229 H   0  0  0  0  0  0  0  0  0  0  0  0
    3.0691   -0.8357   -0.9443 H   0  0  0  0  0  0  0  0  0  0  0  0
    2.2209   -2.1262   -0.0679 H   0  0  0  0  0  0  0  0  0  0  0  0
    2.2730    1.6712   -0.0108 H   0  0  0  0  0  0  0  0  0  0  0  0
    0.2122    3.0510    0.0285 H   0  0  0  0  0  0  0  0  0  0  0  0
   -2.0226    1.9688    0.0372 H   0  0  0  0  0  0  0  0  0  0  0  0
   -0.1325   -1.8924   -0.0409 H   0  0  0  0  0  0  0  0  0  0  0  0
   -2.8980   -0.9064    1.0809 H   0  0  0  0  0  0  0  0  0  0  0  0
   -3.3558   -0.0801   -0.4162 H   0  0  0  0  0  0  0  0  0  0  0  0
   -2.5690   -1.6740   -0.4797 H   0  0  0  0  0  0  0  0  0  0  0  0
  1  2  1  0  0  0  0
  1  9  1  0  0  0  0
  2  7  2  0  0  0  0
  2  3  1  0  0  0  0
  3  4  2  0  0  0  0
  4  5  1  0  0  0  0
  4 13  1  0  0  0  0
  5 14  1  0  0  0  0
  6  5  2  0  0  0  0
  6  8  1  0  0  0  0
  7  6  1  0  0  0  0
  8 16  1  0  0  0  0
 10  1  1  0  0  0  0
 11  1  1  0  0  0  0
 12  3  1  0  0  0  0
 15  7  1  0  0  0  0
 17  8  1  0  0  0  0
 18  8  1  0  0  0  0
M  END
