518
 OpenBabel08181812023D

 26 26  0  0  0  0  0  0  0  0999 V2000
   -2.0940   -0.3573   -1.7039 C   0  0  0  0  0  0  0  0  0  0  0  0
   -1.3582   -1.3001   -0.7438 C   0  0  0  0  0  0  0  0  0  0  0  0
   -0.5589   -0.6427    0.2806 N   0  0  0  0  0  0  0  0  0  0  0  0
   -1.1511   -0.4598    1.5983 C   0  0  0  0  0  0  0  0  0  0  0  0
   -1.7859    0.9145    1.8445 C   0  0  0  0  0  0  0  0  0  0  0  0
    0.7109   -0.1615   -0.0045 C   0  0  0  0  0  0  0  0  0  0  0  0
    1.2939   -0.3191   -1.2864 C   0  0  0  0  0  0  0  0  0  0  0  0
    2.5868    0.1263   -1.5499 C   0  0  0  0  0  0  0  0  0  0  0  0
    3.3519    0.7556   -0.5668 C   0  0  0  0  0  0  0  0  0  0  0  0
    2.7838    0.9355    0.6954 C   0  0  0  0  0  0  0  0  0  0  0  0
    1.4924    0.4971    0.9772 C   0  0  0  0  0  0  0  0  0  0  0  0
   -2.8246    0.2633   -1.1693 H   0  0  0  0  0  0  0  0  0  0  0  0
   -1.3937    0.3139   -2.2170 H   0  0  0  0  0  0  0  0  0  0  0  0
   -2.6336   -0.9362   -2.4670 H   0  0  0  0  0  0  0  0  0  0  0  0
   -0.7140   -1.9859   -1.3166 H   0  0  0  0  0  0  0  0  0  0  0  0
   -2.0896   -1.9370   -0.2258 H   0  0  0  0  0  0  0  0  0  0  0  0
   -1.9141   -1.2417    1.7228 H   0  0  0  0  0  0  0  0  0  0  0  0
   -0.3870   -0.6599    2.3658 H   0  0  0  0  0  0  0  0  0  0  0  0
   -2.1675    0.9789    2.8736 H   0  0  0  0  0  0  0  0  0  0  0  0
   -2.6253    1.0926    1.1600 H   0  0  0  0  0  0  0  0  0  0  0  0
   -1.0565    1.7215    1.7000 H   0  0  0  0  0  0  0  0  0  0  0  0
    0.7356   -0.7912   -2.0915 H   0  0  0  0  0  0  0  0  0  0  0  0
    2.9956   -0.0192   -2.5508 H   0  0  0  0  0  0  0  0  0  0  0  0
    4.3602    1.1064   -0.7817 H   0  0  0  0  0  0  0  0  0  0  0  0
    3.3510    1.4322    1.4838 H   0  0  0  0  0  0  0  0  0  0  0  0
    1.0921    0.6738    1.9728 H   0  0  0  0  0  0  0  0  0  0  0  0
  1 12  1  0  0  0  0
  1  2  1  0  0  0  0
  2 16  1  0  0  0  0
  2  3  1  0  0  0  0
  3  4  1  0  0  0  0
  4 17  1  0  0  0  0
  4  5  1  0  0  0  0
  4 18  1  0  0  0  0
  5 19  1  0  0  0  0
  6  3  1  0  0  0  0
  6 11  2  0  0  0  0
  7  6  1  0  0  0  0
  8  7  2  0  0  0  0
  8  9  1  0  0  0  0
  9 10  2  0  0  0  0
 10 11  1  0  0  0  0
 10 25  1  0  0  0  0
 11 26  1  0  0  0  0
 13  1  1  0  0  0  0
 14  1  1  0  0  0  0
 15  2  1  0  0  0  0
 20  5  1  0  0  0  0
 21  5  1  0  0  0  0
 22  7  1  0  0  0  0
 23  8  1  0  0  0  0
 24  9  1  0  0  0  0
M  END
