391
 OpenBabel08181812023D

 20 20  0  0  0  0  0  0  0  0999 V2000
   -1.9492    1.3463   -0.3769 C   0  0  0  0  0  0  0  0  0  0  0  0
   -1.2432    0.0839   -0.4355 N   0  0  0  0  0  0  0  0  0  0  0  0
   -1.9086   -1.0882   -0.9631 C   0  0  0  0  0  0  0  0  0  0  0  0
    0.0586   -0.0037    0.0199 C   0  0  0  0  0  0  0  0  0  0  0  0
    0.7688   -1.2283   -0.0173 C   0  0  0  0  0  0  0  0  0  0  0  0
    2.0815   -1.3054    0.4411 C   0  0  0  0  0  0  0  0  0  0  0  0
    2.7373   -0.1831    0.9508 C   0  0  0  0  0  0  0  0  0  0  0  0
    2.0457    1.0291    0.9935 C   0  0  0  0  0  0  0  0  0  0  0  0
    0.7329    1.1279    0.5397 C   0  0  0  0  0  0  0  0  0  0  0  0
   -2.9577    1.2133   -0.7808 H   0  0  0  0  0  0  0  0  0  0  0  0
   -1.4471    2.1291   -0.9711 H   0  0  0  0  0  0  0  0  0  0  0  0
   -2.0449    1.7200    0.6572 H   0  0  0  0  0  0  0  0  0  0  0  0
   -2.9196   -0.8149   -1.2811 H   0  0  0  0  0  0  0  0  0  0  0  0
   -1.3796   -1.5048   -1.8375 H   0  0  0  0  0  0  0  0  0  0  0  0
   -1.9953   -1.8909   -0.2101 H   0  0  0  0  0  0  0  0  0  0  0  0
    0.2935   -2.1262   -0.4060 H   0  0  0  0  0  0  0  0  0  0  0  0
    2.5983   -2.2648    0.3944 H   0  0  0  0  0  0  0  0  0  0  0  0
    3.7643   -0.2519    1.3064 H   0  0  0  0  0  0  0  0  0  0  0  0
    2.5348    1.9213    1.3866 H   0  0  0  0  0  0  0  0  0  0  0  0
    0.2296    2.0910    0.5899 H   0  0  0  0  0  0  0  0  0  0  0  0
  1 12  1  0  0  0  0
  2  1  1  0  0  0  0
  2  4  1  0  0  0  0
  3  2  1  0  0  0  0
  3 15  1  0  0  0  0
  4  9  1  0  0  0  0
  5  4  2  0  0  0  0
  5  6  1  0  0  0  0
  6  7  2  0  0  0  0
  7  8  1  0  0  0  0
  7 18  1  0  0  0  0
  8 19  1  0  0  0  0
  9 20  1  0  0  0  0
  9  8  2  0  0  0  0
 10  1  1  0  0  0  0
 11  1  1  0  0  0  0
 13  3  1  0  0  0  0
 14  3  1  0  0  0  0
 16  5  1  0  0  0  0
 17  6  1  0  0  0  0
M  END
