353
 OpenBabel08181812023D

 27 27  0  0  0  0  0  0  0  0999 V2000
    3.8184    0.3700    0.4520 C   0  0  0  0  0  0  0  0  0  0  0  0
    3.2937   -0.9922   -0.0068 C   0  0  0  0  0  0  0  0  0  0  0  0
    2.0293   -0.9252   -0.8730 C   0  0  0  0  0  0  0  0  0  0  0  0
    0.7859   -0.4095   -0.1446 C   0  0  0  0  0  0  0  0  0  0  0  0
   -0.4712   -0.4130   -1.0326 C   0  0  0  0  0  0  0  0  0  0  0  0
   -1.7004    0.0952   -0.3205 C   0  0  0  0  0  0  0  0  0  0  0  0
   -2.5220   -0.7765    0.4080 C   0  0  0  0  0  0  0  0  0  0  0  0
   -3.6375   -0.3044    1.1012 C   0  0  0  0  0  0  0  0  0  0  0  0
   -3.9540    1.0553    1.0772 C   0  0  0  0  0  0  0  0  0  0  0  0
   -3.1472    1.9355    0.3534 C   0  0  0  0  0  0  0  0  0  0  0  0
   -2.0323    1.4572   -0.3371 C   0  0  0  0  0  0  0  0  0  0  0  0
    3.0987    0.8921    1.0968 H   0  0  0  0  0  0  0  0  0  0  0  0
    4.0275    1.0228   -0.4086 H   0  0  0  0  0  0  0  0  0  0  0  0
    4.7513    0.2643    1.0221 H   0  0  0  0  0  0  0  0  0  0  0  0
    3.0942   -1.6254    0.8736 H   0  0  0  0  0  0  0  0  0  0  0  0
    4.0831   -1.5072   -0.5763 H   0  0  0  0  0  0  0  0  0  0  0  0
    1.8151   -1.9313   -1.2700 H   0  0  0  0  0  0  0  0  0  0  0  0
    2.2261   -0.2884   -1.7529 H   0  0  0  0  0  0  0  0  0  0  0  0
    0.5975   -1.0297    0.7475 H   0  0  0  0  0  0  0  0  0  0  0  0
    0.9538    0.6137    0.2253 H   0  0  0  0  0  0  0  0  0  0  0  0
   -0.2802    0.2044   -1.9246 H   0  0  0  0  0  0  0  0  0  0  0  0
   -0.6513   -1.4382   -1.3935 H   0  0  0  0  0  0  0  0  0  0  0  0
   -2.2860   -1.8426    0.4251 H   0  0  0  0  0  0  0  0  0  0  0  0
   -4.2645   -1.0022    1.6576 H   0  0  0  0  0  0  0  0  0  0  0  0
   -4.8269    1.4253    1.6150 H   0  0  0  0  0  0  0  0  0  0  0  0
   -3.3899    2.9982    0.3221 H   0  0  0  0  0  0  0  0  0  0  0  0
   -1.4110    2.1517   -0.9066 H   0  0  0  0  0  0  0  0  0  0  0  0
  1 14  1  0  0  0  0
  1 12  1  0  0  0  0
  2  1  1  0  0  0  0
  2 15  1  0  0  0  0
  3  4  1  0  0  0  0
  3  2  1  0  0  0  0
  4 20  1  0  0  0  0
  4 19  1  0  0  0  0
  5  6  1  0  0  0  0
  5  4  1  0  0  0  0
  6  7  1  0  0  0  0
  7 23  1  0  0  0  0
  7  8  2  0  0  0  0
  8 24  1  0  0  0  0
  9  8  1  0  0  0  0
  9 25  1  0  0  0  0
 10  9  2  0  0  0  0
 11  6  2  0  0  0  0
 11 10  1  0  0  0  0
 13  1  1  0  0  0  0
 16  2  1  0  0  0  0
 17  3  1  0  0  0  0
 18  3  1  0  0  0  0
 21  5  1  0  0  0  0
 22  5  1  0  0  0  0
 26 10  1  0  0  0  0
 27 11  1  0  0  0  0
M  END
