235
 OpenBabel08181812023D

 18 19  0  0  0  0  0  0  0  0999 V2000
   -2.4754    0.5465    0.0011 C   0  0  0  0  0  0  0  0  0  0  0  0
   -2.3820   -0.8631    0.0863 C   0  0  0  0  0  0  0  0  0  0  0  0
   -1.1483   -1.4780    0.1069 C   0  0  0  0  0  0  0  0  0  0  0  0
    0.0474   -0.7154    0.0432 C   0  0  0  0  0  0  0  0  0  0  0  0
    1.3334   -1.3162    0.0621 C   0  0  0  0  0  0  0  0  0  0  0  0
    2.4754   -0.5465   -0.0011 C   0  0  0  0  0  0  0  0  0  0  0  0
    2.3820    0.8631   -0.0863 C   0  0  0  0  0  0  0  0  0  0  0  0
    1.1483    1.4780   -0.1069 C   0  0  0  0  0  0  0  0  0  0  0  0
   -0.0474    0.7154   -0.0432 C   0  0  0  0  0  0  0  0  0  0  0  0
   -1.3334    1.3162   -0.0621 C   0  0  0  0  0  0  0  0  0  0  0  0
   -3.4560    1.0223   -0.0144 H   0  0  0  0  0  0  0  0  0  0  0  0
   -3.2914   -1.4620    0.1360 H   0  0  0  0  0  0  0  0  0  0  0  0
   -1.0739   -2.5648    0.1727 H   0  0  0  0  0  0  0  0  0  0  0  0
    1.4031   -2.4034    0.1279 H   0  0  0  0  0  0  0  0  0  0  0  0
    3.4560   -1.0222    0.0144 H   0  0  0  0  0  0  0  0  0  0  0  0
    3.2914    1.4620   -0.1360 H   0  0  0  0  0  0  0  0  0  0  0  0
    1.0739    2.5648   -0.1727 H   0  0  0  0  0  0  0  0  0  0  0  0
   -1.4031    2.4034   -0.1279 H   0  0  0  0  0  0  0  0  0  0  0  0
  1  2  2  0  0  0  0
  2  3  1  0  0  0  0
  2 12  1  0  0  0  0
  3 13  1  0  0  0  0
  4  5  1  0  0  0  0
  4  3  2  0  0  0  0
  5 14  1  0  0  0  0
  6 15  1  0  0  0  0
  6  5  2  0  0  0  0
  7  6  1  0  0  0  0
  8  7  2  0  0  0  0
  8  9  1  0  0  0  0
  9  4  1  0  0  0  0
 10  9  2  0  0  0  0
 10  1  1  0  0  0  0
 11  1  1  0  0  0  0
 16  7  1  0  0  0  0
 17  8  1  0  0  0  0
 18 10  1  0  0  0  0
M  END
