019
 OpenBabel08181812023D

 17 16  0  0  0  0  0  0  0  0999 V2000
    0.8794    1.2571    0.0987 C   0  0  0  0  0  0  0  0  0  0  0  0
    0.0000   -0.0000    0.0000 C   0  0  0  0  0  0  0  0  0  0  0  0
    0.7917   -1.1268   -0.6833 C   0  0  0  0  0  0  0  0  0  0  0  0
   -1.2567    0.3172   -0.8267 C   0  0  0  0  0  0  0  0  0  0  0  0
   -0.4145   -0.4475    1.4112 C   0  0  0  0  0  0  0  0  0  0  0  0
    1.1919    1.6011   -0.8979 H   0  0  0  0  0  0  0  0  0  0  0  0
    1.7879    1.0597    0.6861 H   0  0  0  0  0  0  0  0  0  0  0  0
    0.3381    2.0819    0.5844 H   0  0  0  0  0  0  0  0  0  0  0  0
    1.6983   -1.3760   -0.1129 H   0  0  0  0  0  0  0  0  0  0  0  0
    0.1865   -2.0410   -0.7680 H   0  0  0  0  0  0  0  0  0  0  0  0
    1.1023   -0.8344   -1.6968 H   0  0  0  0  0  0  0  0  0  0  0  0
   -1.8443    1.1217   -0.3611 H   0  0  0  0  0  0  0  0  0  0  0  0
   -0.9906    0.6409   -1.8434 H   0  0  0  0  0  0  0  0  0  0  0  0
   -1.9064   -0.5656   -0.9145 H   0  0  0  0  0  0  0  0  0  0  0  0
   -1.0459   -1.3470    1.3719 H   0  0  0  0  0  0  0  0  0  0  0  0
    0.4660   -0.6818    2.0270 H   0  0  0  0  0  0  0  0  0  0  0  0
   -0.9839    0.3404    1.9253 H   0  0  0  0  0  0  0  0  0  0  0  0
  1  8  1  0  0  0  0
  1  7  1  0  0  0  0
  2  1  1  0  0  0  0
  2  5  1  0  0  0  0
  3  9  1  0  0  0  0
  3  2  1  0  0  0  0
  4 12  1  0  0  0  0
  4  2  1  0  0  0  0
  5 17  1  0  0  0  0
  5 16  1  0  0  0  0
  6  1  1  0  0  0  0
 10  3  1  0  0  0  0
 11  3  1  0  0  0  0
 13  4  1  0  0  0  0
 14  4  1  0  0  0  0
 15  5  1  0  0  0  0
M  END
