386
 OpenBabel08181812023D

 23 22  0  0  0  0  0  0  0  0999 V2000
    3.5862    0.3818    0.1633 C   0  0  0  0  0  0  0  0  0  0  0  0
    2.4912   -0.6394   -0.1443 C   0  0  0  0  0  0  0  0  0  0  0  0
    1.1086   -0.0079   -0.3242 C   0  0  0  0  0  0  0  0  0  0  0  0
    0.0107   -1.0307   -0.6310 C   0  0  0  0  0  0  0  0  0  0  0  0
   -1.3751   -0.4316   -0.8972 C   0  0  0  0  0  0  0  0  0  0  0  0
   -1.9906    0.2505    0.3222 C   0  0  0  0  0  0  0  0  0  0  0  0
   -3.3927    0.7605    0.0863 C   0  0  0  0  0  0  0  0  0  0  0  0
   -4.0313    0.6671   -0.9406 O   0  0  0  0  0  0  0  0  0  0  0  0
   -3.8936    1.3651    1.2061 O   0  0  0  0  0  0  0  0  0  0  0  0
    3.3698    0.9294    1.0920 H   0  0  0  0  0  0  0  0  0  0  0  0
    4.5660   -0.0998    0.2823 H   0  0  0  0  0  0  0  0  0  0  0  0
    3.6756    1.1237   -0.6433 H   0  0  0  0  0  0  0  0  0  0  0  0
    2.7532   -1.1996   -1.0567 H   0  0  0  0  0  0  0  0  0  0  0  0
    2.4448   -1.3860    0.6655 H   0  0  0  0  0  0  0  0  0  0  0  0
    0.8575    0.5589    0.5879 H   0  0  0  0  0  0  0  0  0  0  0  0
    1.1513    0.7337   -1.1407 H   0  0  0  0  0  0  0  0  0  0  0  0
    0.3117   -1.6161   -1.5146 H   0  0  0  0  0  0  0  0  0  0  0  0
   -0.0559   -1.7542    0.2002 H   0  0  0  0  0  0  0  0  0  0  0  0
   -1.3167    0.2912   -1.7253 H   0  0  0  0  0  0  0  0  0  0  0  0
   -2.0584   -1.2214   -1.2399 H   0  0  0  0  0  0  0  0  0  0  0  0
   -2.0315   -0.4373    1.1828 H   0  0  0  0  0  0  0  0  0  0  0  0
   -1.3866    1.1038    0.6665 H   0  0  0  0  0  0  0  0  0  0  0  0
   -4.7944    1.6583    0.9674 H   0  0  0  0  0  0  0  0  0  0  0  0
  1 11  1  0  0  0  0
  1 10  1  0  0  0  0
  2  1  1  0  0  0  0
  2 14  1  0  0  0  0
  3  2  1  0  0  0  0
  3 15  1  0  0  0  0
  4  3  1  0  0  0  0
  4 18  1  0  0  0  0
  5  4  1  0  0  0  0
  5  6  1  0  0  0  0
  6 22  1  0  0  0  0
  6 21  1  0  0  0  0
  7  6  1  0  0  0  0
  7  9  1  0  0  0  0
  8  7  2  0  0  0  0
 12  1  1  0  0  0  0
 13  2  1  0  0  0  0
 16  3  1  0  0  0  0
 17  4  1  0  0  0  0
 19  5  1  0  0  0  0
 20  5  1  0  0  0  0
 23  9  1  0  0  0  0
M  END
