079
 OpenBabel08181812023D

  7  6  0  0  0  0  0  0  0  0999 V2000
   -0.6604   -0.0419    0.0243 C   0  0  0  0  0  0  0  0  0  0  0  0
    0.8381    0.0740   -0.0300 N   0  0  0  0  0  0  0  0  0  0  0  0
    1.3244    1.2023   -0.0031 O   0  0  0  0  0  0  0  0  0  0  0  0
    1.4670   -0.9796   -0.0980 O   0  0  0  0  0  0  0  0  0  0  0  0
   -0.9767   -0.5714   -0.8795 H   0  0  0  0  0  0  0  0  0  0  0  0
   -0.9064   -0.6444    0.9040 H   0  0  0  0  0  0  0  0  0  0  0  0
   -1.0859    0.9608    0.0822 H   0  0  0  0  0  0  0  0  0  0  0  0
  1  7  1  0  0  0  0
  1  6  1  0  0  0  0
  2  3  2  0  0  0  0
  2  1  1  0  0  0  0
  4  2  2  0  0  0  0
  5  1  1  0  0  0  0
M  END
