233
 OpenBabel08181812023D

 14 14  0  0  0  0  0  0  0  0999 V2000
   -1.8556    0.1458   -0.4294 C   0  0  0  0  0  0  0  0  0  0  0  0
   -1.4080   -0.9077    0.3724 C   0  0  0  0  0  0  0  0  0  0  0  0
   -0.0558   -1.0207    0.6899 C   0  0  0  0  0  0  0  0  0  0  0  0
    0.8274   -0.0649    0.1914 C   0  0  0  0  0  0  0  0  0  0  0  0
    0.4032    0.9936   -0.6096 C   0  0  0  0  0  0  0  0  0  0  0  0
   -0.9520    1.0932   -0.9186 C   0  0  0  0  0  0  0  0  0  0  0  0
    2.2684   -0.1784    0.5250 N   0  0  0  0  0  0  0  0  0  0  0  0
    3.0278    0.6802    0.0714 O   0  0  0  0  0  0  0  0  0  0  0  0
    2.6167   -1.1237    1.2350 O   0  0  0  0  0  0  0  0  0  0  0  0
   -2.9143    0.2289   -0.6744 H   0  0  0  0  0  0  0  0  0  0  0  0
   -2.1142   -1.6450    0.7526 H   0  0  0  0  0  0  0  0  0  0  0  0
    0.3263   -1.8276    1.3110 H   0  0  0  0  0  0  0  0  0  0  0  0
    1.1332    1.7130   -0.9732 H   0  0  0  0  0  0  0  0  0  0  0  0
   -1.3033    1.9135   -1.5434 H   0  0  0  0  0  0  0  0  0  0  0  0
  1  2  2  0  0  0  0
  2  3  1  0  0  0  0
  2 11  1  0  0  0  0
  3 12  1  0  0  0  0
  4  7  1  0  0  0  0
  4  3  2  0  0  0  0
  5  4  1  0  0  0  0
  6  5  2  0  0  0  0
  6  1  1  0  0  0  0
  7  9  2  0  0  0  0
  8  7  2  0  0  0  0
 10  1  1  0  0  0  0
 13  5  1  0  0  0  0
 14  6  1  0  0  0  0
M  END
