549
 OpenBabel08181812023D

 15 15  0  0  0  0  0  0  0  0999 V2000
    2.1485   -0.1755    0.0025 C   0  0  0  0  0  0  0  0  0  0  0  0
    0.6910   -0.0612    0.0013 N   0  0  0  0  0  0  0  0  0  0  0  0
   -0.0710   -1.1869    0.0972 C   0  0  0  0  0  0  0  0  0  0  0  0
   -1.4388   -1.1419    0.1008 C   0  0  0  0  0  0  0  0  0  0  0  0
   -2.0667    0.1261    0.0008 C   0  0  0  0  0  0  0  0  0  0  0  0
   -1.3192    1.2684   -0.0962 C   0  0  0  0  0  0  0  0  0  0  0  0
    0.1274    1.2523   -0.1025 C   0  0  0  0  0  0  0  0  0  0  0  0
    0.8582    2.2416   -0.1869 O   0  0  0  0  0  0  0  0  0  0  0  0
    2.5534    0.8374   -0.0822 H   0  0  0  0  0  0  0  0  0  0  0  0
    2.4946   -0.6355    0.9370 H   0  0  0  0  0  0  0  0  0  0  0  0
    2.4848   -0.7812   -0.8487 H   0  0  0  0  0  0  0  0  0  0  0  0
    0.4828   -2.1225    0.1706 H   0  0  0  0  0  0  0  0  0  0  0  0
   -2.0111   -2.0623    0.1789 H   0  0  0  0  0  0  0  0  0  0  0  0
   -3.1560    0.1890    0.0013 H   0  0  0  0  0  0  0  0  0  0  0  0
   -1.7776    2.2524   -0.1737 H   0  0  0  0  0  0  0  0  0  0  0  0
  1 10  1  0  0  0  0
  2  1  1  0  0  0  0
  2  3  1  0  0  0  0
  3  4  2  0  0  0  0
  3 12  1  0  0  0  0
  4 13  1  0  0  0  0
  5 14  1  0  0  0  0
  5  4  1  0  0  0  0
  6  5  2  0  0  0  0
  7  6  1  0  0  0  0
  7  2  1  0  0  0  0
  8  7  2  0  0  0  0
  9  1  1  0  0  0  0
 11  1  1  0  0  0  0
 15  6  1  0  0  0  0
M  END
