615
 OpenBabel08181812023D

 16 16  0  0  0  0  0  0  0  0999 V2000
    2.1354    0.2672   -0.1411 C   0  0  0  0  0  0  0  0  0  0  0  0
    0.6961    0.1285   -0.0446 N   0  0  0  0  0  0  0  0  0  0  0  0
    0.0205   -1.1572   -0.0368 C   0  0  0  0  0  0  0  0  0  0  0  0
   -1.4883   -0.8070    0.0792 C   0  0  0  0  0  0  0  0  0  0  0  0
   -1.5626    0.7298    0.1317 C   0  0  0  0  0  0  0  0  0  0  0  0
   -0.1205    1.2218    0.0460 C   0  0  0  0  0  0  0  0  0  0  0  0
    0.2663    2.3857    0.0547 O   0  0  0  0  0  0  0  0  0  0  0  0
    2.5920   -0.7265   -0.2039 H   0  0  0  0  0  0  0  0  0  0  0  0
    2.5374    0.7928    0.7367 H   0  0  0  0  0  0  0  0  0  0  0  0
    2.4136    0.8476   -1.0322 H   0  0  0  0  0  0  0  0  0  0  0  0
    0.2431   -1.7187   -0.9593 H   0  0  0  0  0  0  0  0  0  0  0  0
    0.3667   -1.7730    0.8098 H   0  0  0  0  0  0  0  0  0  0  0  0
   -1.9179   -1.2630    0.9782 H   0  0  0  0  0  0  0  0  0  0  0  0
   -2.0402   -1.2088   -0.7780 H   0  0  0  0  0  0  0  0  0  0  0  0
   -2.0096    1.1134    1.0579 H   0  0  0  0  0  0  0  0  0  0  0  0
   -2.1322    1.1674   -0.6983 H   0  0  0  0  0  0  0  0  0  0  0  0
  1  2  1  0  0  0  0
  1  9  1  0  0  0  0
  2  3  1  0  0  0  0
  2  6  1  0  0  0  0
  3  4  1  0  0  0  0
  3 12  1  0  0  0  0
  4  5  1  0  0  0  0
  4 13  1  0  0  0  0
  5 15  1  0  0  0  0
  6  7  2  0  0  0  0
  6  5  1  0  0  0  0
  8  1  1  0  0  0  0
 10  1  1  0  0  0  0
 11  3  1  0  0  0  0
 14  4  1  0  0  0  0
 16  5  1  0  0  0  0
M  END
