089
 OpenBabel08181812023D

 30 29  0  0  0  0  0  0  0  0999 V2000
   -3.0319    1.3381    0.8241 C   0  0  0  0  0  0  0  0  0  0  0  0
   -3.2490    0.5454   -0.4669 C   0  0  0  0  0  0  0  0  0  0  0  0
   -2.0799   -0.3697   -0.8552 C   0  0  0  0  0  0  0  0  0  0  0  0
   -0.7851    0.3703   -1.2064 C   0  0  0  0  0  0  0  0  0  0  0  0
    0.3301   -0.5329   -1.7534 C   0  0  0  0  0  0  0  0  0  0  0  0
    0.8413   -1.6179   -0.7910 C   0  0  0  0  0  0  0  0  0  0  0  0
    1.4075   -1.1123    0.5435 C   0  0  0  0  0  0  0  0  0  0  0  0
    2.6483   -0.2262    0.4107 C   0  0  0  0  0  0  0  0  0  0  0  0
    3.2055    0.2564    1.7484 C   0  0  0  0  0  0  0  0  0  0  0  0
    2.2935    1.0802    2.4863 O   0  0  0  0  0  0  0  0  0  0  0  0
   -2.1960    2.0455    0.7372 H   0  0  0  0  0  0  0  0  0  0  0  0
   -2.8119    0.6680    1.6682 H   0  0  0  0  0  0  0  0  0  0  0  0
   -3.9261    1.9198    1.0869 H   0  0  0  0  0  0  0  0  0  0  0  0
   -3.4517    1.2430   -1.2966 H   0  0  0  0  0  0  0  0  0  0  0  0
   -4.1562   -0.0697   -0.3605 H   0  0  0  0  0  0  0  0  0  0  0  0
   -2.3806   -0.9823   -1.7218 H   0  0  0  0  0  0  0  0  0  0  0  0
   -1.8953   -1.0788   -0.0314 H   0  0  0  0  0  0  0  0  0  0  0  0
   -0.4176    0.9189   -0.3248 H   0  0  0  0  0  0  0  0  0  0  0  0
   -1.0128    1.1390   -1.9640 H   0  0  0  0  0  0  0  0  0  0  0  0
   -0.0333   -1.0282   -2.6691 H   0  0  0  0  0  0  0  0  0  0  0  0
    1.1730    0.0994   -2.0746 H   0  0  0  0  0  0  0  0  0  0  0  0
    1.6184   -2.2029   -1.3106 H   0  0  0  0  0  0  0  0  0  0  0  0
    0.0272   -2.3285   -0.5797 H   0  0  0  0  0  0  0  0  0  0  0  0
    0.6337   -0.5671    1.1046 H   0  0  0  0  0  0  0  0  0  0  0  0
    1.6668   -1.9842    1.1665 H   0  0  0  0  0  0  0  0  0  0  0  0
    3.4469   -0.7783   -0.1149 H   0  0  0  0  0  0  0  0  0  0  0  0
    2.4291    0.6553   -0.2163 H   0  0  0  0  0  0  0  0  0  0  0  0
    3.4101   -0.6012    2.4068 H   0  0  0  0  0  0  0  0  0  0  0  0
    4.1633    0.7848    1.5900 H   0  0  0  0  0  0  0  0  0  0  0  0
    2.1325    1.8813    1.9641 H   0  0  0  0  0  0  0  0  0  0  0  0
  1 13  1  0  0  0  0
  1 12  1  0  0  0  0
  2 15  1  0  0  0  0
  2  1  1  0  0  0  0
  3  2  1  0  0  0  0
  3 17  1  0  0  0  0
  4  3  1  0  0  0  0
  4 18  1  0  0  0  0
  5  4  1  0  0  0  0
  5  6  1  0  0  0  0
  6 23  1  0  0  0  0
  6  7  1  0  0  0  0
  7 24  1  0  0  0  0
  7 25  1  0  0  0  0
  8  7  1  0  0  0  0
  8  9  1  0  0  0  0
  9 28  1  0  0  0  0
  9 10  1  0  0  0  0
 11  1  1  0  0  0  0
 14  2  1  0  0  0  0
 16  3  1  0  0  0  0
 19  4  1  0  0  0  0
 20  5  1  0  0  0  0
 21  5  1  0  0  0  0
 22  6  1  0  0  0  0
 26  8  1  0  0  0  0
 27  8  1  0  0  0  0
 29  9  1  0  0  0  0
 30 10  1  0  0  0  0
M  END
