107
 OpenBabel08181812023D

 59 58  0  0  0  0  0  0  0  0999 V2000
    9.0642   -0.7298    0.2243 C   0  0  0  0  0  0  0  0  0  0  0  0
    7.9282   -1.4080   -0.5446 C   0  0  0  0  0  0  0  0  0  0  0  0
    6.5416   -0.8023   -0.2876 C   0  0  0  0  0  0  0  0  0  0  0  0
    6.3508    0.6000   -0.8749 C   0  0  0  0  0  0  0  0  0  0  0  0
    5.0011    1.2511   -0.5494 C   0  0  0  0  0  0  0  0  0  0  0  0
    3.7745    0.5143   -1.0957 C   0  0  0  0  0  0  0  0  0  0  0  0
    2.4699    1.2749   -0.8432 C   0  0  0  0  0  0  0  0  0  0  0  0
    1.2058    0.5813   -1.3685 C   0  0  0  0  0  0  0  0  0  0  0  0
    0.8718   -0.7746   -0.7259 C   0  0  0  0  0  0  0  0  0  0  0  0
    0.6942   -0.7592    0.8010 C   0  0  0  0  0  0  0  0  0  0  0  0
   -0.3741    0.2025    1.3389 C   0  0  0  0  0  0  0  0  0  0  0  0
   -1.8016   -0.0938    0.8715 C   0  0  0  0  0  0  0  0  0  0  0  0
   -2.8295    0.8806    1.4551 C   0  0  0  0  0  0  0  0  0  0  0  0
   -4.2873    0.5698    1.0956 C   0  0  0  0  0  0  0  0  0  0  0  0
   -4.6111    0.6930   -0.3972 C   0  0  0  0  0  0  0  0  0  0  0  0
   -6.0975    0.5257   -0.7369 C   0  0  0  0  0  0  0  0  0  0  0  0
   -6.6528   -0.8762   -0.4619 C   0  0  0  0  0  0  0  0  0  0  0  0
   -8.0917   -1.0912   -0.9476 C   0  0  0  0  0  0  0  0  0  0  0  0
   -9.1351   -0.2442   -0.2160 C   0  0  0  0  0  0  0  0  0  0  0  0
    8.8943   -0.7896    1.3094 H   0  0  0  0  0  0  0  0  0  0  0  0
    9.1617    0.3327   -0.0366 H   0  0  0  0  0  0  0  0  0  0  0  0
   10.0299   -1.2080    0.0126 H   0  0  0  0  0  0  0  0  0  0  0  0
    7.9051   -2.4760   -0.2780 H   0  0  0  0  0  0  0  0  0  0  0  0
    8.1405   -1.3716   -1.6263 H   0  0  0  0  0  0  0  0  0  0  0  0
    6.3559   -0.7694    0.8005 H   0  0  0  0  0  0  0  0  0  0  0  0
    5.7796   -1.4777   -0.7053 H   0  0  0  0  0  0  0  0  0  0  0  0
    6.4756    0.5482   -1.9704 H   0  0  0  0  0  0  0  0  0  0  0  0
    7.1511    1.2625   -0.5104 H   0  0  0  0  0  0  0  0  0  0  0  0
    4.9015    1.3491    0.5455 H   0  0  0  0  0  0  0  0  0  0  0  0
    4.9998    2.2806   -0.9442 H   0  0  0  0  0  0  0  0  0  0  0  0
    3.7131   -0.4873   -0.6434 H   0  0  0  0  0  0  0  0  0  0  0  0
    3.8972    0.3518   -2.1811 H   0  0  0  0  0  0  0  0  0  0  0  0
    2.3694    1.4662    0.2381 H   0  0  0  0  0  0  0  0  0  0  0  0
    2.5451    2.2694   -1.3130 H   0  0  0  0  0  0  0  0  0  0  0  0
    1.3065    0.4338   -2.4567 H   0  0  0  0  0  0  0  0  0  0  0  0
    0.3512    1.2647   -1.2408 H   0  0  0  0  0  0  0  0  0  0  0  0
   -0.0438   -1.1639   -1.1979 H   0  0  0  0  0  0  0  0  0  0  0  0
    1.6592   -1.5032   -0.9745 H   0  0  0  0  0  0  0  0  0  0  0  0
    0.4507   -1.7826    1.1314 H   0  0  0  0  0  0  0  0  0  0  0  0
    1.6573   -0.5161    1.2776 H   0  0  0  0  0  0  0  0  0  0  0  0
   -0.3499    0.1712    2.4408 H   0  0  0  0  0  0  0  0  0  0  0  0
   -0.1152    1.2393    1.0672 H   0  0  0  0  0  0  0  0  0  0  0  0
   -2.0726   -1.1252    1.1583 H   0  0  0  0  0  0  0  0  0  0  0  0
   -1.8459   -0.0627   -0.2279 H   0  0  0  0  0  0  0  0  0  0  0  0
   -2.7266    0.8869    2.5527 H   0  0  0  0  0  0  0  0  0  0  0  0
   -2.5840    1.9042    1.1228 H   0  0  0  0  0  0  0  0  0  0  0  0
   -4.5337   -0.4439    1.4508 H   0  0  0  0  0  0  0  0  0  0  0  0
   -4.9458    1.2556    1.6548 H   0  0  0  0  0  0  0  0  0  0  0  0
   -4.0300   -0.0482   -0.9697 H   0  0  0  0  0  0  0  0  0  0  0  0
   -4.2732    1.6823   -0.7490 H   0  0  0  0  0  0  0  0  0  0  0  0
   -6.6781    1.2768   -0.1766 H   0  0  0  0  0  0  0  0  0  0  0  0
   -6.2477    0.7586   -1.8044 H   0  0  0  0  0  0  0  0  0  0  0  0
   -6.6051   -1.0941    0.6176 H   0  0  0  0  0  0  0  0  0  0  0  0
   -5.9961   -1.6154   -0.9507 H   0  0  0  0  0  0  0  0  0  0  0  0
   -8.3490   -2.1557   -0.8325 H   0  0  0  0  0  0  0  0  0  0  0  0
   -8.1413   -0.8826   -2.0294 H   0  0  0  0  0  0  0  0  0  0  0  0
   -9.1089   -0.4351    0.8670 H   0  0  0  0  0  0  0  0  0  0  0  0
   -8.9685    0.8310   -0.3660 H   0  0  0  0  0  0  0  0  0  0  0  0
  -10.1504   -0.4705   -0.5687 H   0  0  0  0  0  0  0  0  0  0  0  0
  1 20  1  0  0  0  0
  2  3  1  0  0  0  0
  2 23  1  0  0  0  0
  2  1  1  0  0  0  0
  3 25  1  0  0  0  0
  4  5  1  0  0  0  0
  4 28  1  0  0  0  0
  4  3  1  0  0  0  0
  5 29  1  0  0  0  0
  6  7  1  0  0  0  0
  6 31  1  0  0  0  0
  6  5  1  0  0  0  0
  7 33  1  0  0  0  0
  8 36  1  0  0  0  0
  8  7  1  0  0  0  0
  8  9  1  0  0  0  0
  9 10  1  0  0  0  0
 10 39  1  0  0  0  0
 10 40  1  0  0  0  0
 10 11  1  0  0  0  0
 11 41  1  0  0  0  0
 12 43  1  0  0  0  0
 12 11  1  0  0  0  0
 12 13  1  0  0  0  0
 13 45  1  0  0  0  0
 14 47  1  0  0  0  0
 14 13  1  0  0  0  0
 14 48  1  0  0  0  0
 15 14  1  0  0  0  0
 16 17  1  0  0  0  0
 16 15  1  0  0  0  0
 16 51  1  0  0  0  0
 17 53  1  0  0  0  0
 18 55  1  0  0  0  0
 18 17  1  0  0  0  0
 18 19  1  0  0  0  0
 19 57  1  0  0  0  0
 21  1  1  0  0  0  0
 22  1  1  0  0  0  0
 24  2  1  0  0  0  0
 26  3  1  0  0  0  0
 27  4  1  0  0  0  0
 30  5  1  0  0  0  0
 32  6  1  0  0  0  0
 34  7  1  0  0  0  0
 35  8  1  0  0  0  0
 37  9  1  0  0  0  0
 38  9  1  0  0  0  0
 42 11  1  0  0  0  0
 44 12  1  0  0  0  0
 46 13  1  0  0  0  0
 49 15  1  0  0  0  0
 50 15  1  0  0  0  0
 52 16  1  0  0  0  0
 54 17  1  0  0  0  0
 56 18  1  0  0  0  0
 58 19  1  0  0  0  0
 59 19  1  0  0  0  0
M  END
