363
 OpenBabel08181812023D

 28 27  0  0  0  0  0  0  0  0999 V2000
   -4.2507    0.8089   -0.3015 C   0  0  0  0  0  0  0  0  0  0  0  0
   -3.7831   -0.4423    0.4448 C   0  0  0  0  0  0  0  0  0  0  0  0
   -2.3960   -0.9485    0.0280 C   0  0  0  0  0  0  0  0  0  0  0  0
   -1.2399   -0.0064    0.3753 C   0  0  0  0  0  0  0  0  0  0  0  0
    0.1349   -0.5842    0.0305 C   0  0  0  0  0  0  0  0  0  0  0  0
    1.2927    0.3608    0.3568 C   0  0  0  0  0  0  0  0  0  0  0  0
    2.6683   -0.2311    0.0416 C   0  0  0  0  0  0  0  0  0  0  0  0
    3.8218    0.7377    0.3518 C   0  0  0  0  0  0  0  0  0  0  0  0
    5.1659    0.0820    0.1757 C   0  0  0  0  0  0  0  0  0  0  0  0
    6.0373    0.4595   -0.5789 O   0  0  0  0  0  0  0  0  0  0  0  0
   -5.2687    1.0927   -0.0016 H   0  0  0  0  0  0  0  0  0  0  0  0
   -3.6000    1.6723   -0.1066 H   0  0  0  0  0  0  0  0  0  0  0  0
   -4.2603    0.6393   -1.3886 H   0  0  0  0  0  0  0  0  0  0  0  0
   -3.7838   -0.2459    1.5299 H   0  0  0  0  0  0  0  0  0  0  0  0
   -4.5147   -1.2493    0.2841 H   0  0  0  0  0  0  0  0  0  0  0  0
   -2.3927   -1.1421   -1.0587 H   0  0  0  0  0  0  0  0  0  0  0  0
   -2.2137   -1.9235    0.5094 H   0  0  0  0  0  0  0  0  0  0  0  0
   -1.3664    0.9549   -0.1485 H   0  0  0  0  0  0  0  0  0  0  0  0
   -1.2755    0.2274    1.4535 H   0  0  0  0  0  0  0  0  0  0  0  0
    0.1648   -0.8396   -1.0424 H   0  0  0  0  0  0  0  0  0  0  0  0
    0.2756   -1.5355    0.5717 H   0  0  0  0  0  0  0  0  0  0  0  0
    1.1644    1.3023   -0.2028 H   0  0  0  0  0  0  0  0  0  0  0  0
    1.2536    0.6348    1.4247 H   0  0  0  0  0  0  0  0  0  0  0  0
    2.8063   -1.1622    0.6165 H   0  0  0  0  0  0  0  0  0  0  0  0
    2.7139   -0.5160   -1.0216 H   0  0  0  0  0  0  0  0  0  0  0  0
    3.7760    1.6372   -0.2766 H   0  0  0  0  0  0  0  0  0  0  0  0
    3.7473    1.0515    1.4088 H   0  0  0  0  0  0  0  0  0  0  0  0
    5.3225   -0.8347    0.8061 H   0  0  0  0  0  0  0  0  0  0  0  0
  1 12  1  0  0  0  0
  1 11  1  0  0  0  0
  1  2  1  0  0  0  0
  2 14  1  0  0  0  0
  3  4  1  0  0  0  0
  3  2  1  0  0  0  0
  3 17  1  0  0  0  0
  4 19  1  0  0  0  0
  5  6  1  0  0  0  0
  5  4  1  0  0  0  0
  5 21  1  0  0  0  0
  6 23  1  0  0  0  0
  7  8  1  0  0  0  0
  7  6  1  0  0  0  0
  7 24  1  0  0  0  0
  8 27  1  0  0  0  0
  9  8  1  0  0  0  0
  9 28  1  0  0  0  0
 10  9  2  0  0  0  0
 13  1  1  0  0  0  0
 15  2  1  0  0  0  0
 16  3  1  0  0  0  0
 18  4  1  0  0  0  0
 20  5  1  0  0  0  0
 22  6  1  0  0  0  0
 25  7  1  0  0  0  0
 26  8  1  0  0  0  0
M  END
