179
 OpenBabel08181812023D

 27 26  0  0  0  0  0  0  0  0999 V2000
   -3.1207    0.1681   -1.1007 C   0  0  0  0  0  0  0  0  0  0  0  0
   -2.9726   -0.8844   -0.0005 C   0  0  0  0  0  0  0  0  0  0  0  0
   -2.2404   -0.3867    1.2542 C   0  0  0  0  0  0  0  0  0  0  0  0
   -0.7853    0.0563    1.0472 C   0  0  0  0  0  0  0  0  0  0  0  0
    0.1550   -1.0609    0.5820 C   0  0  0  0  0  0  0  0  0  0  0  0
    1.6391   -0.6749    0.5811 C   0  0  0  0  0  0  0  0  0  0  0  0
    2.0104    0.4236   -0.4308 C   0  0  0  0  0  0  0  0  0  0  0  0
    3.4828    0.7021   -0.4645 C   0  0  0  0  0  0  0  0  0  0  0  0
    4.0526    1.8778   -0.1876 C   0  0  0  0  0  0  0  0  0  0  0  0
   -3.6973   -0.2229   -1.9497 H   0  0  0  0  0  0  0  0  0  0  0  0
   -3.6427    1.0614   -0.7272 H   0  0  0  0  0  0  0  0  0  0  0  0
   -2.1468    0.4952   -1.4905 H   0  0  0  0  0  0  0  0  0  0  0  0
   -2.4590   -1.7705   -0.4052 H   0  0  0  0  0  0  0  0  0  0  0  0
   -3.9728   -1.2332    0.3000 H   0  0  0  0  0  0  0  0  0  0  0  0
   -2.2616   -1.1839    2.0156 H   0  0  0  0  0  0  0  0  0  0  0  0
   -2.8079    0.4565    1.6816 H   0  0  0  0  0  0  0  0  0  0  0  0
   -0.4062    0.4588    2.0012 H   0  0  0  0  0  0  0  0  0  0  0  0
   -0.7527    0.8963    0.3363 H   0  0  0  0  0  0  0  0  0  0  0  0
    0.0196   -1.9335    1.2425 H   0  0  0  0  0  0  0  0  0  0  0  0
   -0.1292   -1.3993   -0.4281 H   0  0  0  0  0  0  0  0  0  0  0  0
    1.9338   -0.3432    1.5901 H   0  0  0  0  0  0  0  0  0  0  0  0
    2.2442   -1.5704    0.3661 H   0  0  0  0  0  0  0  0  0  0  0  0
    1.4695    1.3544   -0.2047 H   0  0  0  0  0  0  0  0  0  0  0  0
    1.6768    0.0986   -1.4327 H   0  0  0  0  0  0  0  0  0  0  0  0
    4.1245   -0.1486   -0.7219 H   0  0  0  0  0  0  0  0  0  0  0  0
    5.1338    2.0120   -0.2187 H   0  0  0  0  0  0  0  0  0  0  0  0
    3.4526    2.7511    0.0778 H   0  0  0  0  0  0  0  0  0  0  0  0
  1 11  1  0  0  0  0
  1  2  1  0  0  0  0
  2 14  1  0  0  0  0
  2  3  1  0  0  0  0
  3 16  1  0  0  0  0
  3 15  1  0  0  0  0
  4  3  1  0  0  0  0
  4 17  1  0  0  0  0
  5  4  1  0  0  0  0
  5 19  1  0  0  0  0
  6  5  1  0  0  0  0
  6 21  1  0  0  0  0
  7 23  1  0  0  0  0
  7  6  1  0  0  0  0
  8  7  1  0  0  0  0
  8  9  2  0  0  0  0
  9 27  1  0  0  0  0
 10  1  1  0  0  0  0
 12  1  1  0  0  0  0
 13  2  1  0  0  0  0
 18  4  1  0  0  0  0
 20  5  1  0  0  0  0
 22  6  1  0  0  0  0
 24  7  1  0  0  0  0
 25  8  1  0  0  0  0
 26  9  1  0  0  0  0
M  END
