351
 OpenBabel08181812023D

 22 21  0  0  0  0  0  0  0  0999 V2000
   -3.0961    0.4578   -0.5615 C   0  0  0  0  0  0  0  0  0  0  0  0
   -1.7453    0.7347    0.0987 C   0  0  0  0  0  0  0  0  0  0  0  0
   -1.1174   -0.5164    0.7194 C   0  0  0  0  0  0  0  0  0  0  0  0
    0.2020   -0.2694    1.4651 C   0  0  0  0  0  0  0  0  0  0  0  0
    1.3707    0.2431    0.6136 C   0  0  0  0  0  0  0  0  0  0  0  0
    1.8306   -0.7596   -0.4640 C   0  0  0  0  0  0  0  0  0  0  0  0
    2.9798   -0.2925   -1.2262 C   0  0  0  0  0  0  0  0  0  0  0  0
    3.9351    0.1237   -1.8428 C   0  0  0  0  0  0  0  0  0  0  0  0
   -3.8210    0.0642    0.1658 H   0  0  0  0  0  0  0  0  0  0  0  0
   -3.5254    1.3683   -1.0008 H   0  0  0  0  0  0  0  0  0  0  0  0
   -3.0002   -0.2859   -1.3659 H   0  0  0  0  0  0  0  0  0  0  0  0
   -1.0606    1.1692   -0.6463 H   0  0  0  0  0  0  0  0  0  0  0  0
   -1.8666    1.5015    0.8818 H   0  0  0  0  0  0  0  0  0  0  0  0
   -0.9747   -1.2783   -0.0654 H   0  0  0  0  0  0  0  0  0  0  0  0
   -1.8372   -0.9586    1.4277 H   0  0  0  0  0  0  0  0  0  0  0  0
    0.5104   -1.2030    1.9640 H   0  0  0  0  0  0  0  0  0  0  0  0
    0.0191    0.4578    2.2728 H   0  0  0  0  0  0  0  0  0  0  0  0
    2.2257    0.4630    1.2692 H   0  0  0  0  0  0  0  0  0  0  0  0
    1.1098    1.1938    0.1263 H   0  0  0  0  0  0  0  0  0  0  0  0
    1.0044   -0.9724   -1.1612 H   0  0  0  0  0  0  0  0  0  0  0  0
    2.0793   -1.7217    0.0151 H   0  0  0  0  0  0  0  0  0  0  0  0
    4.7777    0.4805   -2.3955 H   0  0  0  0  0  0  0  0  0  0  0  0
  1  2  1  0  0  0  0
  1  9  1  0  0  0  0
  2  3  1  0  0  0  0
  2 13  1  0  0  0  0
  3 15  1  0  0  0  0
  3  4  1  0  0  0  0
  4 16  1  0  0  0  0
  4 17  1  0  0  0  0
  5 18  1  0  0  0  0
  5  4  1  0  0  0  0
  6 21  1  0  0  0  0
  6  5  1  0  0  0  0
  7  6  1  0  0  0  0
  8  7  3  0  0  0  0
 10  1  1  0  0  0  0
 11  1  1  0  0  0  0
 12  2  1  0  0  0  0
 14  3  1  0  0  0  0
 19  5  1  0  0  0  0
 20  6  1  0  0  0  0
 22  8  1  0  0  0  0
M  END
