477
 OpenBabel08181812023D

 86 85  0  0  0  0  0  0  0  0999 V2000
  -10.6620    3.1293    0.0283 C   0  0  0  0  0  0  0  0  0  0  0  0
  -11.2631    1.7225    0.1008 C   0  0  0  0  0  0  0  0  0  0  0  0
  -10.7104    0.7182   -0.9297 C   0  0  0  0  0  0  0  0  0  0  0  0
   -9.4939   -0.1074   -0.4847 C   0  0  0  0  0  0  0  0  0  0  0  0
   -8.2017    0.6790   -0.2376 C   0  0  0  0  0  0  0  0  0  0  0  0
   -6.9722   -0.2018    0.0266 C   0  0  0  0  0  0  0  0  0  0  0  0
   -7.0273   -0.9757    1.3483 C   0  0  0  0  0  0  0  0  0  0  0  0
   -5.7536   -1.7499    1.7183 C   0  0  0  0  0  0  0  0  0  0  0  0
   -5.3958   -2.9190    0.7762 C   0  0  0  0  0  0  0  0  0  0  0  0
   -4.3934   -2.5943   -0.3434 C   0  0  0  0  0  0  0  0  0  0  0  0
   -2.9551   -2.3967    0.1448 C   0  0  0  0  0  0  0  0  0  0  0  0
   -1.9795   -2.0556   -0.9855 C   0  0  0  0  0  0  0  0  0  0  0  0
   -0.5133   -1.9151   -0.5544 C   0  0  0  0  0  0  0  0  0  0  0  0
   -0.2332   -0.7151    0.3560 C   0  0  0  0  0  0  0  0  0  0  0  0
    1.2346   -0.5710    0.7847 C   0  0  0  0  0  0  0  0  0  0  0  0
    2.2433   -0.3217   -0.3483 C   0  0  0  0  0  0  0  0  0  0  0  0
    1.9926    0.9381   -1.1908 C   0  0  0  0  0  0  0  0  0  0  0  0
    1.9996    2.2658   -0.4182 C   0  0  0  0  0  0  0  0  0  0  0  0
    3.3097    2.6579    0.2848 C   0  0  0  0  0  0  0  0  0  0  0  0
    4.4969    2.9645   -0.6510 C   0  0  0  0  0  0  0  0  0  0  0  0
    5.4372    1.7925   -0.9748 C   0  0  0  0  0  0  0  0  0  0  0  0
    6.3003    1.3337    0.2042 C   0  0  0  0  0  0  0  0  0  0  0  0
    7.2615    0.1973   -0.1531 C   0  0  0  0  0  0  0  0  0  0  0  0
    8.1397   -0.2469    1.0195 C   0  0  0  0  0  0  0  0  0  0  0  0
    9.0697   -1.4294    0.7112 C   0  0  0  0  0  0  0  0  0  0  0  0
   10.1418   -1.1787   -0.3594 C   0  0  0  0  0  0  0  0  0  0  0  0
   11.1617   -0.0930   -0.0045 C   0  0  0  0  0  0  0  0  0  0  0  0
   12.2691    0.0468   -1.0495 C   0  0  0  0  0  0  0  0  0  0  0  0
   -9.5801    3.1310    0.2118 H   0  0  0  0  0  0  0  0  0  0  0  0
  -10.8274    3.5722   -0.9647 H   0  0  0  0  0  0  0  0  0  0  0  0
  -11.1247    3.7969    0.7687 H   0  0  0  0  0  0  0  0  0  0  0  0
  -12.3515    1.8095   -0.0402 H   0  0  0  0  0  0  0  0  0  0  0  0
  -11.1283    1.3107    1.1149 H   0  0  0  0  0  0  0  0  0  0  0  0
  -10.4693    1.2532   -1.8647 H   0  0  0  0  0  0  0  0  0  0  0  0
  -11.5102    0.0079   -1.1910 H   0  0  0  0  0  0  0  0  0  0  0  0
   -9.2917   -0.8683   -1.2578 H   0  0  0  0  0  0  0  0  0  0  0  0
   -9.7678   -0.6679    0.4241 H   0  0  0  0  0  0  0  0  0  0  0  0
   -8.3349    1.3647    0.6150 H   0  0  0  0  0  0  0  0  0  0  0  0
   -8.0023    1.3163   -1.1150 H   0  0  0  0  0  0  0  0  0  0  0  0
   -6.0717    0.4348    0.0281 H   0  0  0  0  0  0  0  0  0  0  0  0
   -6.8500   -0.9021   -0.8159 H   0  0  0  0  0  0  0  0  0  0  0  0
   -7.8722   -1.6833    1.3299 H   0  0  0  0  0  0  0  0  0  0  0  0
   -7.2499   -0.2604    2.1587 H   0  0  0  0  0  0  0  0  0  0  0  0
   -4.9062   -1.0468    1.7808 H   0  0  0  0  0  0  0  0  0  0  0  0
   -5.8864   -2.1406    2.7389 H   0  0  0  0  0  0  0  0  0  0  0  0
   -4.9810   -3.7501    1.3694 H   0  0  0  0  0  0  0  0  0  0  0  0
   -6.3252   -3.3101    0.3304 H   0  0  0  0  0  0  0  0  0  0  0  0
   -4.7164   -1.6938   -0.8893 H   0  0  0  0  0  0  0  0  0  0  0  0
   -4.4040   -3.4143   -1.0806 H   0  0  0  0  0  0  0  0  0  0  0  0
   -2.6166   -3.3181    0.6500 H   0  0  0  0  0  0  0  0  0  0  0  0
   -2.9301   -1.6048    0.9098 H   0  0  0  0  0  0  0  0  0  0  0  0
   -2.3036   -1.1202   -1.4740 H   0  0  0  0  0  0  0  0  0  0  0  0
   -2.0499   -2.8381   -1.7591 H   0  0  0  0  0  0  0  0  0  0  0  0
    0.1097   -1.8395   -1.4593 H   0  0  0  0  0  0  0  0  0  0  0  0
   -0.1934   -2.8400   -0.0434 H   0  0  0  0  0  0  0  0  0  0  0  0
   -0.5688    0.2052   -0.1509 H   0  0  0  0  0  0  0  0  0  0  0  0
   -0.8473   -0.7938    1.2664 H   0  0  0  0  0  0  0  0  0  0  0  0
    1.3071    0.2442    1.5219 H   0  0  0  0  0  0  0  0  0  0  0  0
    1.5370   -1.4844    1.3231 H   0  0  0  0  0  0  0  0  0  0  0  0
    2.2627   -1.1926   -1.0219 H   0  0  0  0  0  0  0  0  0  0  0  0
    3.2510   -0.2744    0.0942 H   0  0  0  0  0  0  0  0  0  0  0  0
    2.7403    0.9776   -1.9984 H   0  0  0  0  0  0  0  0  0  0  0  0
    1.0211    0.8446   -1.7023 H   0  0  0  0  0  0  0  0  0  0  0  0
    1.7306    3.0742   -1.1185 H   0  0  0  0  0  0  0  0  0  0  0  0
    1.1938    2.2482    0.3336 H   0  0  0  0  0  0  0  0  0  0  0  0
    3.5945    1.8833    1.0145 H   0  0  0  0  0  0  0  0  0  0  0  0
    3.0974    3.5549    0.8864 H   0  0  0  0  0  0  0  0  0  0  0  0
    5.1068    3.7668   -0.2045 H   0  0  0  0  0  0  0  0  0  0  0  0
    4.1032    3.3827   -1.5923 H   0  0  0  0  0  0  0  0  0  0  0  0
    6.1057    2.0969   -1.7971 H   0  0  0  0  0  0  0  0  0  0  0  0
    4.8628    0.9347   -1.3582 H   0  0  0  0  0  0  0  0  0  0  0  0
    6.8786    2.1945    0.5823 H   0  0  0  0  0  0  0  0  0  0  0  0
    5.6587    1.0117    1.0413 H   0  0  0  0  0  0  0  0  0  0  0  0
    7.8938    0.5183   -0.9973 H   0  0  0  0  0  0  0  0  0  0  0  0
    6.6832   -0.6681   -0.5212 H   0  0  0  0  0  0  0  0  0  0  0  0
    8.7308    0.6125    1.3764 H   0  0  0  0  0  0  0  0  0  0  0  0
    7.4878   -0.5274    1.8630 H   0  0  0  0  0  0  0  0  0  0  0  0
    9.5703   -1.7376    1.6441 H   0  0  0  0  0  0  0  0  0  0  0  0
    8.4544   -2.2900    0.3998 H   0  0  0  0  0  0  0  0  0  0  0  0
   10.6818   -2.1235   -0.5380 H   0  0  0  0  0  0  0  0  0  0  0  0
    9.6640   -0.9261   -1.3205 H   0  0  0  0  0  0  0  0  0  0  0  0
   11.6073   -0.3237    0.9775 H   0  0  0  0  0  0  0  0  0  0  0  0
   10.6525    0.8759    0.1146 H   0  0  0  0  0  0  0  0  0  0  0  0
   12.9890    0.8300   -0.7751 H   0  0  0  0  0  0  0  0  0  0  0  0
   11.8549    0.3062   -2.0346 H   0  0  0  0  0  0  0  0  0  0  0  0
   12.8270   -0.8936   -1.1651 H   0  0  0  0  0  0  0  0  0  0  0  0
  1  2  1  0  0  0  0
  1 29  1  0  0  0  0
  1 31  1  0  0  0  0
  2 33  1  0  0  0  0
  3  4  1  0  0  0  0
  3  2  1  0  0  0  0
  4  5  1  0  0  0  0
  4 37  1  0  0  0  0
  5  6  1  0  0  0  0
  5 38  1  0  0  0  0
  6 40  1  0  0  0  0
  6  7  1  0  0  0  0
  7  8  1  0  0  0  0
  7 43  1  0  0  0  0
  8 44  1  0  0  0  0
  8 45  1  0  0  0  0
  9 46  1  0  0  0  0
  9  8  1  0  0  0  0
 10 11  1  0  0  0  0
 10  9  1  0  0  0  0
 11 50  1  0  0  0  0
 11 51  1  0  0  0  0
 12 13  1  0  0  0  0
 12 11  1  0  0  0  0
 13 55  1  0  0  0  0
 13 14  1  0  0  0  0
 14 15  1  0  0  0  0
 14 57  1  0  0  0  0
 15 59  1  0  0  0  0
 15 58  1  0  0  0  0
 16 61  1  0  0  0  0
 16 15  1  0  0  0  0
 17 18  1  0  0  0  0
 17 16  1  0  0  0  0
 18 19  1  0  0  0  0
 18 65  1  0  0  0  0
 19 67  1  0  0  0  0
 19 66  1  0  0  0  0
 20 68  1  0  0  0  0
 20 19  1  0  0  0  0
 21 20  1  0  0  0  0
 21 22  1  0  0  0  0
 22 72  1  0  0  0  0
 22 73  1  0  0  0  0
 23 22  1  0  0  0  0
 23 24  1  0  0  0  0
 24 76  1  0  0  0  0
 24 77  1  0  0  0  0
 25 24  1  0  0  0  0
 25 78  1  0  0  0  0
 26 27  1  0  0  0  0
 26 25  1  0  0  0  0
 27 83  1  0  0  0  0
 27 82  1  0  0  0  0
 28 84  1  0  0  0  0
 28 27  1  0  0  0  0
 30  1  1  0  0  0  0
 32  2  1  0  0  0  0
 34  3  1  0  0  0  0
 35  3  1  0  0  0  0
 36  4  1  0  0  0  0
 39  5  1  0  0  0  0
 41  6  1  0  0  0  0
 42  7  1  0  0  0  0
 47  9  1  0  0  0  0
 48 10  1  0  0  0  0
 49 10  1  0  0  0  0
 52 12  1  0  0  0  0
 53 12  1  0  0  0  0
 54 13  1  0  0  0  0
 56 14  1  0  0  0  0
 60 16  1  0  0  0  0
 62 17  1  0  0  0  0
 63 17  1  0  0  0  0
 64 18  1  0  0  0  0
 69 20  1  0  0  0  0
 70 21  1  0  0  0  0
 71 21  1  0  0  0  0
 74 23  1  0  0  0  0
 75 23  1  0  0  0  0
 79 25  1  0  0  0  0
 80 26  1  0  0  0  0
 81 26  1  0  0  0  0
 85 28  1  0  0  0  0
 86 28  1  0  0  0  0
M  END
