158
 OpenBabel08181812023D

 18 18  0  0  0  0  0  0  0  0999 V2000
   -2.0278   -0.6641    0.1254 C   0  0  0  0  0  0  0  0  0  0  0  0
   -0.5272   -0.5160    0.0554 C   0  0  0  0  0  0  0  0  0  0  0  0
    0.2674   -1.6706    0.1003 C   0  0  0  0  0  0  0  0  0  0  0  0
    1.6578   -1.6072    0.0404 C   0  0  0  0  0  0  0  0  0  0  0  0
    2.2826   -0.3643   -0.0672 C   0  0  0  0  0  0  0  0  0  0  0  0
    1.5043    0.7910   -0.1129 C   0  0  0  0  0  0  0  0  0  0  0  0
    0.1035    0.7414   -0.0534 C   0  0  0  0  0  0  0  0  0  0  0  0
   -0.6850    2.0263   -0.1073 C   0  0  0  0  0  0  0  0  0  0  0  0
   -2.5517    0.2960    0.0826 H   0  0  0  0  0  0  0  0  0  0  0  0
   -2.3291   -1.1658    1.0566 H   0  0  0  0  0  0  0  0  0  0  0  0
   -2.3997   -1.2830   -0.7041 H   0  0  0  0  0  0  0  0  0  0  0  0
   -0.2235   -2.6427    0.1846 H   0  0  0  0  0  0  0  0  0  0  0  0
    2.2492   -2.5224    0.0776 H   0  0  0  0  0  0  0  0  0  0  0  0
    3.3695   -0.2938   -0.1154 H   0  0  0  0  0  0  0  0  0  0  0  0
    1.9918    1.7643   -0.1971 H   0  0  0  0  0  0  0  0  0  0  0  0
   -1.2990    2.1694    0.7940 H   0  0  0  0  0  0  0  0  0  0  0  0
   -0.0134    2.8893   -0.1917 H   0  0  0  0  0  0  0  0  0  0  0  0
   -1.3696    2.0521   -0.9677 H   0  0  0  0  0  0  0  0  0  0  0  0
  1 10  1  0  0  0  0
  2  3  1  0  0  0  0
  2  1  1  0  0  0  0
  3 12  1  0  0  0  0
  4 13  1  0  0  0  0
  4  3  2  0  0  0  0
  5  4  1  0  0  0  0
  6  5  2  0  0  0  0
  6  7  1  0  0  0  0
  7  2  2  0  0  0  0
  8  7  1  0  0  0  0
  8 16  1  0  0  0  0
  9  1  1  0  0  0  0
 11  1  1  0  0  0  0
 14  5  1  0  0  0  0
 15  6  1  0  0  0  0
 17  8  1  0  0  0  0
 18  8  1  0  0  0  0
M  END
