465
 OpenBabel08181812023D

 24 24  0  0  0  0  0  0  0  0999 V2000
    3.8604    0.1037   -0.2850 C   0  0  0  0  0  0  0  0  0  0  0  0
    2.3613    0.1072   -0.1357 C   0  0  0  0  0  0  0  0  0  0  0  0
    1.7427    0.7754    0.9293 C   0  0  0  0  0  0  0  0  0  0  0  0
    0.3549    0.7789    1.0678 C   0  0  0  0  0  0  0  0  0  0  0  0
   -0.4726    0.1171    0.1509 C   0  0  0  0  0  0  0  0  0  0  0  0
    0.1470   -0.5508   -0.9136 C   0  0  0  0  0  0  0  0  0  0  0  0
    1.5354   -0.5548   -1.0528 C   0  0  0  0  0  0  0  0  0  0  0  0
   -1.9827    0.1306    0.3157 C   0  0  0  0  0  0  0  0  0  0  0  0
   -2.5490   -1.2814    0.5345 C   0  0  0  0  0  0  0  0  0  0  0  0
   -2.6824    0.8246   -0.8638 C   0  0  0  0  0  0  0  0  0  0  0  0
    4.2556    1.1250   -0.3852 H   0  0  0  0  0  0  0  0  0  0  0  0
    4.3494   -0.3452    0.5918 H   0  0  0  0  0  0  0  0  0  0  0  0
    4.1724   -0.4646   -1.1701 H   0  0  0  0  0  0  0  0  0  0  0  0
    2.3564    1.3020    1.6632 H   0  0  0  0  0  0  0  0  0  0  0  0
   -0.0992    1.3084    1.9082 H   0  0  0  0  0  0  0  0  0  0  0  0
   -0.4594   -1.0795   -1.6513 H   0  0  0  0  0  0  0  0  0  0  0  0
    1.9888   -1.0843   -1.8932 H   0  0  0  0  0  0  0  0  0  0  0  0
   -2.1970    0.7194    1.2229 H   0  0  0  0  0  0  0  0  0  0  0  0
   -2.3817   -1.9161   -0.3475 H   0  0  0  0  0  0  0  0  0  0  0  0
   -3.6327   -1.2409    0.7151 H   0  0  0  0  0  0  0  0  0  0  0  0
   -2.0755   -1.7726    1.3949 H   0  0  0  0  0  0  0  0  0  0  0  0
   -2.3045    1.8455   -1.0076 H   0  0  0  0  0  0  0  0  0  0  0  0
   -2.5204    0.2723   -1.8005 H   0  0  0  0  0  0  0  0  0  0  0  0
   -3.7670    0.8800   -0.6931 H   0  0  0  0  0  0  0  0  0  0  0  0
  1  2  1  0  0  0  0
  1 12  1  0  0  0  0
  2  3  2  0  0  0  0
  3  4  1  0  0  0  0
  3 14  1  0  0  0  0
  4 15  1  0  0  0  0
  5  8  1  0  0  0  0
  5  4  2  0  0  0  0
  6  5  1  0  0  0  0
  7  6  2  0  0  0  0
  7  2  1  0  0  0  0
  8  9  1  0  0  0  0
  8 18  1  0  0  0  0
  9 20  1  0  0  0  0
  9 21  1  0  0  0  0
 10 24  1  0  0  0  0
 10  8  1  0  0  0  0
 11  1  1  0  0  0  0
 13  1  1  0  0  0  0
 16  6  1  0  0  0  0
 17  7  1  0  0  0  0
 19  9  1  0  0  0  0
 22 10  1  0  0  0  0
 23 10  1  0  0  0  0
M  END
