505
 OpenBabel08181812023D

 14 14  0  0  0  0  0  0  0  0999 V2000
    0.7283    1.1931    0.1100 C   0  0  0  0  0  0  0  0  0  0  0  0
   -0.6577    1.2373    0.0508 C   0  0  0  0  0  0  0  0  0  0  0  0
   -1.3951    0.0445   -0.0596 C   0  0  0  0  0  0  0  0  0  0  0  0
   -0.7283   -1.1931   -0.1100 C   0  0  0  0  0  0  0  0  0  0  0  0
    0.6577   -1.2373   -0.0508 C   0  0  0  0  0  0  0  0  0  0  0  0
    1.3951   -0.0445    0.0596 C   0  0  0  0  0  0  0  0  0  0  0  0
    2.8212   -0.0899    0.1204 C   0  0  0  0  0  0  0  0  0  0  0  0
    3.9843   -0.1269    0.1700 N   0  0  0  0  0  0  0  0  0  0  0  0
   -2.8212    0.0899   -0.1204 C   0  0  0  0  0  0  0  0  0  0  0  0
   -3.9843    0.1269   -0.1700 N   0  0  0  0  0  0  0  0  0  0  0  0
    1.3053    2.1121    0.1954 H   0  0  0  0  0  0  0  0  0  0  0  0
   -1.1803    2.1913    0.0893 H   0  0  0  0  0  0  0  0  0  0  0  0
   -1.3053   -2.1121   -0.1954 H   0  0  0  0  0  0  0  0  0  0  0  0
    1.1803   -2.1913   -0.0893 H   0  0  0  0  0  0  0  0  0  0  0  0
  1 11  1  0  0  0  0
  2 12  1  0  0  0  0
  2  1  2  0  0  0  0
  3  2  1  0  0  0  0
  4  3  2  0  0  0  0
  4  5  1  0  0  0  0
  5  6  2  0  0  0  0
  6  1  1  0  0  0  0
  6  7  1  0  0  0  0
  7  8  3  0  0  0  0
  9  3  1  0  0  0  0
 10  9  3  0  0  0  0
 13  4  1  0  0  0  0
 14  5  1  0  0  0  0
M  END
