369
 OpenBabel08181812023D

 26 25  0  0  0  0  0  0  0  0999 V2000
   -3.8448    0.6759   -1.0009 C   0  0  0  0  0  0  0  0  0  0  0  0
   -2.9014   -0.0728   -0.0593 C   0  0  0  0  0  0  0  0  0  0  0  0
   -1.6636    0.7468    0.3164 C   0  0  0  0  0  0  0  0  0  0  0  0
   -0.7163    0.0597    1.3080 C   0  0  0  0  0  0  0  0  0  0  0  0
    0.0012   -1.1739    0.7743 C   0  0  0  0  0  0  0  0  0  0  0  0
    0.8364   -0.8595   -0.3743 O   0  0  0  0  0  0  0  0  0  0  0  0
    2.1210   -0.4972   -0.1043 C   0  0  0  0  0  0  0  0  0  0  0  0
    2.5873   -0.4230    1.0144 O   0  0  0  0  0  0  0  0  0  0  0  0
    2.8729   -0.2200   -1.3910 C   0  0  0  0  0  0  0  0  0  0  0  0
    4.2958    0.2742   -1.1610 C   0  0  0  0  0  0  0  0  0  0  0  0
   -4.7269    0.0726   -1.2541 H   0  0  0  0  0  0  0  0  0  0  0  0
   -4.2001    1.6113   -0.5447 H   0  0  0  0  0  0  0  0  0  0  0  0
   -3.3398    0.9389   -1.9415 H   0  0  0  0  0  0  0  0  0  0  0  0
   -3.4424   -0.3515    0.8605 H   0  0  0  0  0  0  0  0  0  0  0  0
   -2.5967   -1.0198   -0.5321 H   0  0  0  0  0  0  0  0  0  0  0  0
   -1.1079    1.0099   -0.5980 H   0  0  0  0  0  0  0  0  0  0  0  0
   -1.9926    1.7024    0.7556 H   0  0  0  0  0  0  0  0  0  0  0  0
   -1.2810   -0.2551    2.2020 H   0  0  0  0  0  0  0  0  0  0  0  0
    0.0431    0.7727    1.6607 H   0  0  0  0  0  0  0  0  0  0  0  0
   -0.7027   -1.9270    0.3989 H   0  0  0  0  0  0  0  0  0  0  0  0
    0.6307   -1.6202    1.5543 H   0  0  0  0  0  0  0  0  0  0  0  0
    2.2821    0.5003   -1.9772 H   0  0  0  0  0  0  0  0  0  0  0  0
    2.8617   -1.1492   -1.9821 H   0  0  0  0  0  0  0  0  0  0  0  0
    4.3019    1.2145   -0.5961 H   0  0  0  0  0  0  0  0  0  0  0  0
    4.8028    0.4447   -2.1195 H   0  0  0  0  0  0  0  0  0  0  0  0
    4.8792   -0.4550   -0.5859 H   0  0  0  0  0  0  0  0  0  0  0  0
  1 12  1  0  0  0  0
  1  2  1  0  0  0  0
  2  3  1  0  0  0  0
  2 14  1  0  0  0  0
  3 17  1  0  0  0  0
  3  4  1  0  0  0  0
  4 19  1  0  0  0  0
  4 18  1  0  0  0  0
  5  4  1  0  0  0  0
  5 21  1  0  0  0  0
  6  7  1  0  0  0  0
  6  5  1  0  0  0  0
  7  8  2  0  0  0  0
  9 10  1  0  0  0  0
  9  7  1  0  0  0  0
 10 24  1  0  0  0  0
 10 26  1  0  0  0  0
 11  1  1  0  0  0  0
 13  1  1  0  0  0  0
 15  2  1  0  0  0  0
 16  3  1  0  0  0  0
 20  5  1  0  0  0  0
 22  9  1  0  0  0  0
 23  9  1  0  0  0  0
 25 10  1  0  0  0  0
M  END
