085
 OpenBabel08181812023D

 18 17  0  0  0  0  0  0  0  0999 V2000
    2.4952    0.6832   -0.2297 C   0  0  0  0  0  0  0  0  0  0  0  0
    1.1436    0.0593   -0.5789 C   0  0  0  0  0  0  0  0  0  0  0  0
    0.2924   -0.2408    0.6582 C   0  0  0  0  0  0  0  0  0  0  0  0
   -1.0383   -0.9425    0.3603 C   0  0  0  0  0  0  0  0  0  0  0  0
   -2.0563   -0.1025   -0.4101 C   0  0  0  0  0  0  0  0  0  0  0  0
   -2.4443    1.0949    0.2740 O   0  0  0  0  0  0  0  0  0  0  0  0
    2.3655    1.6302    0.3137 H   0  0  0  0  0  0  0  0  0  0  0  0
    3.0879    0.8946   -1.1300 H   0  0  0  0  0  0  0  0  0  0  0  0
    3.0880    0.0138    0.4106 H   0  0  0  0  0  0  0  0  0  0  0  0
    0.5970    0.7367   -1.2533 H   0  0  0  0  0  0  0  0  0  0  0  0
    1.3031   -0.8738   -1.1449 H   0  0  0  0  0  0  0  0  0  0  0  0
    0.0934    0.6981    1.1988 H   0  0  0  0  0  0  0  0  0  0  0  0
    0.8774   -0.8735    1.3455 H   0  0  0  0  0  0  0  0  0  0  0  0
   -0.8533   -1.8662   -0.2148 H   0  0  0  0  0  0  0  0  0  0  0  0
   -1.5022   -1.2664    1.3082 H   0  0  0  0  0  0  0  0  0  0  0  0
   -2.9420   -0.7194   -0.6473 H   0  0  0  0  0  0  0  0  0  0  0  0
   -1.6380    0.2400   -1.3667 H   0  0  0  0  0  0  0  0  0  0  0  0
   -2.8689    0.8344    1.1063 H   0  0  0  0  0  0  0  0  0  0  0  0
  1  7  1  0  0  0  0
  1  9  1  0  0  0  0
  2  1  1  0  0  0  0
  2  3  1  0  0  0  0
  3 12  1  0  0  0  0
  3 13  1  0  0  0  0
  4  3  1  0  0  0  0
  4 15  1  0  0  0  0
  5  6  1  0  0  0  0
  5  4  1  0  0  0  0
  6 18  1  0  0  0  0
  8  1  1  0  0  0  0
 10  2  1  0  0  0  0
 11  2  1  0  0  0  0
 14  4  1  0  0  0  0
 16  5  1  0  0  0  0
 17  5  1  0  0  0  0
M  END
