499
 OpenBabel08181812023D

 18 18  0  0  0  0  0  0  0  0999 V2000
    3.4559    0.2760   -0.0508 C   0  0  0  0  0  0  0  0  0  0  0  0
    2.0471    0.3117    0.4793 C   0  0  0  0  0  0  0  0  0  0  0  0
    1.7146    0.5994    1.6033 O   0  0  0  0  0  0  0  0  0  0  0  0
    1.1705   -0.0573   -0.5230 O   0  0  0  0  0  0  0  0  0  0  0  0
   -0.2054   -0.0934   -0.2637 C   0  0  0  0  0  0  0  0  0  0  0  0
   -0.8902    1.0078    0.2486 C   0  0  0  0  0  0  0  0  0  0  0  0
   -2.2749    0.9271    0.4027 C   0  0  0  0  0  0  0  0  0  0  0  0
   -2.9647   -0.2335    0.0457 C   0  0  0  0  0  0  0  0  0  0  0  0
   -2.2633   -1.3243   -0.4705 C   0  0  0  0  0  0  0  0  0  0  0  0
   -0.8780   -1.2586   -0.6258 C   0  0  0  0  0  0  0  0  0  0  0  0
    3.5341    0.8640   -0.9736 H   0  0  0  0  0  0  0  0  0  0  0  0
    3.7315   -0.7574   -0.2999 H   0  0  0  0  0  0  0  0  0  0  0  0
    4.1396    0.6651    0.7076 H   0  0  0  0  0  0  0  0  0  0  0  0
   -0.3493    1.9090    0.5279 H   0  0  0  0  0  0  0  0  0  0  0  0
   -2.8165    1.7830    0.8056 H   0  0  0  0  0  0  0  0  0  0  0  0
   -4.0462   -0.2860    0.1681 H   0  0  0  0  0  0  0  0  0  0  0  0
   -2.7925   -2.2338   -0.7546 H   0  0  0  0  0  0  0  0  0  0  0  0
   -0.3122   -2.0986   -1.0269 H   0  0  0  0  0  0  0  0  0  0  0  0
  1  2  1  0  0  0  0
  1 13  1  0  0  0  0
  2  3  2  0  0  0  0
  4  5  1  0  0  0  0
  4  2  1  0  0  0  0
  5  6  2  0  0  0  0
  6  7  1  0  0  0  0
  6 14  1  0  0  0  0
  7 15  1  0  0  0  0
  8 16  1  0  0  0  0
  8  7  2  0  0  0  0
  9  8  1  0  0  0  0
 10  9  2  0  0  0  0
 10  5  1  0  0  0  0
 11  1  1  0  0  0  0
 12  1  1  0  0  0  0
 17  9  1  0  0  0  0
 18 10  1  0  0  0  0
M  END
