545
 OpenBabel08181812023D

 19 19  0  0  0  0  0  0  0  0999 V2000
   -2.7648   -0.2643   -0.5756 C   0  0  0  0  0  0  0  0  0  0  0  0
   -1.8665   -1.2740   -0.9251 C   0  0  0  0  0  0  0  0  0  0  0  0
   -0.5476   -1.2252   -0.4713 C   0  0  0  0  0  0  0  0  0  0  0  0
   -0.1014   -0.1714    0.3386 C   0  0  0  0  0  0  0  0  0  0  0  0
   -1.0154    0.8343    0.6839 C   0  0  0  0  0  0  0  0  0  0  0  0
   -2.3353    0.7898    0.2329 C   0  0  0  0  0  0  0  0  0  0  0  0
    1.3377   -0.0919    0.7825 C   0  0  0  0  0  0  0  0  0  0  0  0
    2.2077    0.6763   -0.2252 C   0  0  0  0  0  0  0  0  0  0  0  0
    3.5669    0.8045    0.1927 O   0  0  0  0  0  0  0  0  0  0  0  0
   -3.7959   -0.3017   -0.9271 H   0  0  0  0  0  0  0  0  0  0  0  0
   -2.1957   -2.1054   -1.5492 H   0  0  0  0  0  0  0  0  0  0  0  0
    0.1459   -2.0244   -0.7413 H   0  0  0  0  0  0  0  0  0  0  0  0
   -0.6898    1.6577    1.3228 H   0  0  0  0  0  0  0  0  0  0  0  0
   -3.0332    1.5779    0.5174 H   0  0  0  0  0  0  0  0  0  0  0  0
    1.7485   -1.1075    0.9029 H   0  0  0  0  0  0  0  0  0  0  0  0
    1.4158    0.4082    1.7585 H   0  0  0  0  0  0  0  0  0  0  0  0
    2.1375    0.1979   -1.2188 H   0  0  0  0  0  0  0  0  0  0  0  0
    1.8335    1.7036   -0.3326 H   0  0  0  0  0  0  0  0  0  0  0  0
    3.9521   -0.0843    0.2342 H   0  0  0  0  0  0  0  0  0  0  0  0
  1  6  1  0  0  0  0
  2  1  2  0  0  0  0
  2  3  1  0  0  0  0
  3  4  2  0  0  0  0
  4  5  1  0  0  0  0
  4  7  1  0  0  0  0
  5 13  1  0  0  0  0
  6 14  1  0  0  0  0
  6  5  2  0  0  0  0
  7 15  1  0  0  0  0
  7 16  1  0  0  0  0
  8  9  1  0  0  0  0
  8  7  1  0  0  0  0
  9 19  1  0  0  0  0
 10  1  1  0  0  0  0
 11  2  1  0  0  0  0
 12  3  1  0  0  0  0
 17  8  1  0  0  0  0
 18  8  1  0  0  0  0
M  END
