654
 OpenBabel08181812023D

  4  3  0  0  0  0  0  0  0  0999 V2000
    0.0029   -0.0023    0.5937 P   0  0  0  0  0  0  0  0  0  0  0  0
   -0.7656   -0.9125   -0.1972 H   0  0  0  0  0  0  0  0  0  0  0  0
    1.1727   -0.2046   -0.2044 H   0  0  0  0  0  0  0  0  0  0  0  0
   -0.4100    1.1193   -0.1922 H   0  0  0  0  0  0  0  0  0  0  0  0
  2  1  1  0  0  0  0
  3  1  1  0  0  0  0
  4  1  1  0  0  0  0
M  END
