250
 OpenBabel08181812023D

 19 18  0  0  0  0  0  0  0  0999 V2000
    1.8554    0.5026   -1.1700 C   0  0  0  0  0  0  0  0  0  0  0  0
    1.1995    0.3176    0.1817 C   0  0  0  0  0  0  0  0  0  0  0  0
    1.8362    0.4795    1.2095 O   0  0  0  0  0  0  0  0  0  0  0  0
   -0.2981   -0.0813    0.2589 C   0  0  0  0  0  0  0  0  0  0  0  0
   -0.3721   -1.4092    1.0390 C   0  0  0  0  0  0  0  0  0  0  0  0
   -0.9674   -0.2498   -1.1119 C   0  0  0  0  0  0  0  0  0  0  0  0
   -1.0194    1.0239    1.0561 C   0  0  0  0  0  0  0  0  0  0  0  0
    2.9043    0.7807   -1.0308 H   0  0  0  0  0  0  0  0  0  0  0  0
    1.3383    1.2796   -1.7515 H   0  0  0  0  0  0  0  0  0  0  0  0
    1.7908   -0.4204   -1.7642 H   0  0  0  0  0  0  0  0  0  0  0  0
    0.1221   -2.2243    0.4910 H   0  0  0  0  0  0  0  0  0  0  0  0
   -1.4224   -1.6946    1.1924 H   0  0  0  0  0  0  0  0  0  0  0  0
    0.1133   -1.3084    2.0170 H   0  0  0  0  0  0  0  0  0  0  0  0
   -0.9514    0.6793   -1.6977 H   0  0  0  0  0  0  0  0  0  0  0  0
   -0.4940   -1.0407   -1.7096 H   0  0  0  0  0  0  0  0  0  0  0  0
   -2.0211   -0.5310   -0.9746 H   0  0  0  0  0  0  0  0  0  0  0  0
   -2.0722    0.7478    1.2094 H   0  0  0  0  0  0  0  0  0  0  0  0
   -0.5448    1.1646    2.0344 H   0  0  0  0  0  0  0  0  0  0  0  0
   -0.9972    1.9840    0.5207 H   0  0  0  0  0  0  0  0  0  0  0  0
  1  8  1  0  0  0  0
  1  2  1  0  0  0  0
  2  4  1  0  0  0  0
  2  3  2  0  0  0  0
  4  5  1  0  0  0  0
  4  7  1  0  0  0  0
  5 12  1  0  0  0  0
  5 13  1  0  0  0  0
  6 16  1  0  0  0  0
  6  4  1  0  0  0  0
  7 17  1  0  0  0  0
  7 18  1  0  0  0  0
  9  1  1  0  0  0  0
 10  1  1  0  0  0  0
 11  5  1  0  0  0  0
 14  6  1  0  0  0  0
 15  6  1  0  0  0  0
 19  7  1  0  0  0  0
M  END
