220
 OpenBabel08181812023D

 17 17  0  0  0  0  0  0  0  0999 V2000
   -1.0040   -0.9125    0.0187 C   0  0  0  0  0  0  0  0  0  0  0  0
    0.3618   -1.2264   -0.6038 C   0  0  0  0  0  0  0  0  0  0  0  0
    1.4637   -0.3819    0.0532 C   0  0  0  0  0  0  0  0  0  0  0  0
    1.1958    1.0595    0.0617 N   0  0  0  0  0  0  0  0  0  0  0  0
   -0.1209    1.3731    0.6253 C   0  0  0  0  0  0  0  0  0  0  0  0
   -1.2828    0.5950   -0.0101 C   0  0  0  0  0  0  0  0  0  0  0  0
   -1.0103   -1.2597    1.0665 H   0  0  0  0  0  0  0  0  0  0  0  0
   -1.8028   -1.4657   -0.4969 H   0  0  0  0  0  0  0  0  0  0  0  0
    0.5971   -2.2980   -0.5056 H   0  0  0  0  0  0  0  0  0  0  0  0
    0.3344   -1.0051   -1.6846 H   0  0  0  0  0  0  0  0  0  0  0  0
    1.5842   -0.6995    1.1040 H   0  0  0  0  0  0  0  0  0  0  0  0
    2.4326   -0.5510   -0.4387 H   0  0  0  0  0  0  0  0  0  0  0  0
    1.2479    1.4180   -0.8937 H   0  0  0  0  0  0  0  0  0  0  0  0
   -0.0792    1.1429    1.7045 H   0  0  0  0  0  0  0  0  0  0  0  0
   -0.2836    2.4575    0.5418 H   0  0  0  0  0  0  0  0  0  0  0  0
   -2.2241    0.8268    0.5127 H   0  0  0  0  0  0  0  0  0  0  0  0
   -1.4098    0.9269   -1.0549 H   0  0  0  0  0  0  0  0  0  0  0  0
  1  7  1  0  0  0  0
  2  9  1  0  0  0  0
  2  1  1  0  0  0  0
  2  3  1  0  0  0  0
  3  4  1  0  0  0  0
  3 11  1  0  0  0  0
  4  5  1  0  0  0  0
  5 14  1  0  0  0  0
  6  1  1  0  0  0  0
  6 16  1  0  0  0  0
  6  5  1  0  0  0  0
  8  1  1  0  0  0  0
 10  2  1  0  0  0  0
 12  3  1  0  0  0  0
 13  4  1  0  0  0  0
 15  5  1  0  0  0  0
 17  6  1  0  0  0  0
M  END
