440
 OpenBabel08181812023D

 21 20  0  0  0  0  0  0  0  0999 V2000
   -3.4273   -0.8178    0.0250 C   0  0  0  0  0  0  0  0  0  0  0  0
   -2.8564    0.5901   -0.1482 C   0  0  0  0  0  0  0  0  0  0  0  0
   -1.4294    0.7577    0.3758 C   0  0  0  0  0  0  0  0  0  0  0  0
   -0.2400   -0.2144   -0.6125 S   0  0  0  0  0  0  0  0  0  0  0  0
    1.2958    0.2008    0.2776 C   0  0  0  0  0  0  0  0  0  0  0  0
    2.4968   -0.4630   -0.3927 C   0  0  0  0  0  0  0  0  0  0  0  0
    3.8059   -0.1663    0.3405 C   0  0  0  0  0  0  0  0  0  0  0  0
   -3.4224   -1.1172    1.0831 H   0  0  0  0  0  0  0  0  0  0  0  0
   -4.4643   -0.8685   -0.3325 H   0  0  0  0  0  0  0  0  0  0  0  0
   -2.8411   -1.5608   -0.5308 H   0  0  0  0  0  0  0  0  0  0  0  0
   -3.4923    1.3131    0.3866 H   0  0  0  0  0  0  0  0  0  0  0  0
   -2.8871    0.8813   -1.2097 H   0  0  0  0  0  0  0  0  0  0  0  0
   -1.3669    0.4293    1.4253 H   0  0  0  0  0  0  0  0  0  0  0  0
   -1.1294    1.8148    0.3310 H   0  0  0  0  0  0  0  0  0  0  0  0
    1.2039   -0.1373    1.3215 H   0  0  0  0  0  0  0  0  0  0  0  0
    1.4176    1.2952    0.2856 H   0  0  0  0  0  0  0  0  0  0  0  0
    2.5641   -0.1177   -1.4354 H   0  0  0  0  0  0  0  0  0  0  0  0
    2.3311   -1.5502   -0.4361 H   0  0  0  0  0  0  0  0  0  0  0  0
    4.0092    0.9133    0.3760 H   0  0  0  0  0  0  0  0  0  0  0  0
    4.6566   -0.6488   -0.1588 H   0  0  0  0  0  0  0  0  0  0  0  0
    3.7757   -0.5336    1.3761 H   0  0  0  0  0  0  0  0  0  0  0  0
  1  8  1  0  0  0  0
  2  1  1  0  0  0  0
  2  3  1  0  0  0  0
  2 11  1  0  0  0  0
  3 13  1  0  0  0  0
  4  5  1  0  0  0  0
  4  3  1  0  0  0  0
  5 16  1  0  0  0  0
  5 15  1  0  0  0  0
  6  5  1  0  0  0  0
  6  7  1  0  0  0  0
  7 19  1  0  0  0  0
  7 21  1  0  0  0  0
  9  1  1  0  0  0  0
 10  1  1  0  0  0  0
 12  2  1  0  0  0  0
 14  3  1  0  0  0  0
 17  6  1  0  0  0  0
 18  6  1  0  0  0  0
 20  7  1  0  0  0  0
M  END
