608
 OpenBabel08181812023D

 27 27  0  0  0  0  0  0  0  0999 V2000
   -3.2755   -0.3552   -0.0746 C   0  0  0  0  0  0  0  0  0  0  0  0
   -2.1910   -0.0990   -1.1230 C   0  0  0  0  0  0  0  0  0  0  0  0
   -0.9993    0.7299   -0.6213 C   0  0  0  0  0  0  0  0  0  0  0  0
   -0.2061    0.1328    0.5587 C   0  0  0  0  0  0  0  0  0  0  0  0
    0.4264   -1.2403    0.2516 C   0  0  0  0  0  0  0  0  0  0  0  0
    1.6232   -1.1500   -0.7042 C   0  0  0  0  0  0  0  0  0  0  0  0
    2.6865   -0.1818   -0.1732 C   0  0  0  0  0  0  0  0  0  0  0  0
    2.0870    1.2006    0.1069 C   0  0  0  0  0  0  0  0  0  0  0  0
    0.8852    1.1039    1.0563 C   0  0  0  0  0  0  0  0  0  0  0  0
   -2.9092   -0.9760    0.7545 H   0  0  0  0  0  0  0  0  0  0  0  0
   -4.1372   -0.8750   -0.5152 H   0  0  0  0  0  0  0  0  0  0  0  0
   -3.6414    0.5886    0.3561 H   0  0  0  0  0  0  0  0  0  0  0  0
   -1.8363   -1.0608   -1.5262 H   0  0  0  0  0  0  0  0  0  0  0  0
   -2.6383    0.4312   -1.9787 H   0  0  0  0  0  0  0  0  0  0  0  0
   -0.3243    0.9181   -1.4706 H   0  0  0  0  0  0  0  0  0  0  0  0
   -1.3694    1.7223   -0.3097 H   0  0  0  0  0  0  0  0  0  0  0  0
   -0.9170   -0.0078    1.3898 H   0  0  0  0  0  0  0  0  0  0  0  0
    0.7707   -1.6821    1.2024 H   0  0  0  0  0  0  0  0  0  0  0  0
   -0.3297   -1.9332   -0.1475 H   0  0  0  0  0  0  0  0  0  0  0  0
    1.2873   -0.8119   -1.6986 H   0  0  0  0  0  0  0  0  0  0  0  0
    2.0573   -2.1503   -0.8527 H   0  0  0  0  0  0  0  0  0  0  0  0
    3.1067   -0.5886    0.7632 H   0  0  0  0  0  0  0  0  0  0  0  0
    3.5242   -0.1022   -0.8823 H   0  0  0  0  0  0  0  0  0  0  0  0
    2.8489    1.8681    0.5370 H   0  0  0  0  0  0  0  0  0  0  0  0
    1.7787    1.6629   -0.8451 H   0  0  0  0  0  0  0  0  0  0  0  0
    1.2444    0.7546    2.0395 H   0  0  0  0  0  0  0  0  0  0  0  0
    0.4481    2.1012    1.2227 H   0  0  0  0  0  0  0  0  0  0  0  0
  1 12  1  0  0  0  0
  1 10  1  0  0  0  0
  2  3  1  0  0  0  0
  2  1  1  0  0  0  0
  3 16  1  0  0  0  0
  3  4  1  0  0  0  0
  4  9  1  0  0  0  0
  4 17  1  0  0  0  0
  5  4  1  0  0  0  0
  5 18  1  0  0  0  0
  6  7  1  0  0  0  0
  6  5  1  0  0  0  0
  7  8  1  0  0  0  0
  7 22  1  0  0  0  0
  8 24  1  0  0  0  0
  8  9  1  0  0  0  0
  9 27  1  0  0  0  0
  9 26  1  0  0  0  0
 11  1  1  0  0  0  0
 13  2  1  0  0  0  0
 14  2  1  0  0  0  0
 15  3  1  0  0  0  0
 19  5  1  0  0  0  0
 20  6  1  0  0  0  0
 21  6  1  0  0  0  0
 23  7  1  0  0  0  0
 25  8  1  0  0  0  0
M  END
