056
 OpenBabel08181812023D

 10  9  0  0  0  0  0  0  0  0999 V2000
   -1.1433    0.1408    0.1831 C   0  0  0  0  0  0  0  0  0  0  0  0
    0.1631   -0.5541   -0.2252 C   0  0  0  0  0  0  0  0  0  0  0  0
    1.3563    0.3383    0.0024 C   0  0  0  0  0  0  0  0  0  0  0  0
    2.3280    0.0556    0.6703 O   0  0  0  0  0  0  0  0  0  0  0  0
   -1.1746    0.3151    1.2663 H   0  0  0  0  0  0  0  0  0  0  0  0
   -2.0116   -0.4719   -0.0872 H   0  0  0  0  0  0  0  0  0  0  0  0
   -1.2518    1.1126   -0.3182 H   0  0  0  0  0  0  0  0  0  0  0  0
    0.3156   -1.4975    0.3144 H   0  0  0  0  0  0  0  0  0  0  0  0
    0.1321   -0.7797   -1.3057 H   0  0  0  0  0  0  0  0  0  0  0  0
    1.2862    1.3406   -0.5001 H   0  0  0  0  0  0  0  0  0  0  0  0
  1  5  1  0  0  0  0
  2  3  1  0  0  0  0
  2  1  1  0  0  0  0
  2  8  1  0  0  0  0
  3  4  2  0  0  0  0
  6  1  1  0  0  0  0
  7  1  1  0  0  0  0
  9  2  1  0  0  0  0
 10  3  1  0  0  0  0
M  END
