337
 OpenBabel08181812023D

  7  6  0  0  0  0  0  0  0  0999 V2000
   -0.9505    0.0466    0.0069 C   0  0  0  0  0  0  0  0  0  0  0  0
    0.5006   -0.0245   -0.0036 C   0  0  0  0  0  0  0  0  0  0  0  0
    1.7089   -0.0837   -0.0124 C   0  0  0  0  0  0  0  0  0  0  0  0
   -1.3596   -0.3648    0.9403 H   0  0  0  0  0  0  0  0  0  0  0  0
   -1.2959    1.0862   -0.0823 H   0  0  0  0  0  0  0  0  0  0  0  0
   -1.3802   -0.5235   -0.8287 H   0  0  0  0  0  0  0  0  0  0  0  0
    2.7767   -0.1361   -0.0202 H   0  0  0  0  0  0  0  0  0  0  0  0
  1  4  1  0  0  0  0
  2  1  1  0  0  0  0
  3  2  3  0  0  0  0
  5  1  1  0  0  0  0
  6  1  1  0  0  0  0
  7  3  1  0  0  0  0
M  END
