253
 OpenBabel08181812023D

 13 12  0  0  0  0  0  0  0  0999 V2000
   -1.3799    0.6588    0.2185 C   0  0  0  0  0  0  0  0  0  0  0  0
   -0.6305   -0.6339   -0.1080 C   0  0  0  0  0  0  0  0  0  0  0  0
    0.8360   -0.6211    0.3251 C   0  0  0  0  0  0  0  0  0  0  0  0
    1.6081    0.3865   -0.4158 N   0  0  0  0  0  0  0  0  0  0  0  0
   -1.3437    0.8793    1.2960 H   0  0  0  0  0  0  0  0  0  0  0  0
   -2.4372    0.5898   -0.0700 H   0  0  0  0  0  0  0  0  0  0  0  0
   -0.9571    1.5197   -0.3182 H   0  0  0  0  0  0  0  0  0  0  0  0
   -0.6733   -0.8257   -1.1910 H   0  0  0  0  0  0  0  0  0  0  0  0
   -1.1287   -1.4811    0.3888 H   0  0  0  0  0  0  0  0  0  0  0  0
    0.8814   -0.4918    1.4264 H   0  0  0  0  0  0  0  0  0  0  0  0
    1.2814   -1.6025    0.1051 H   0  0  0  0  0  0  0  0  0  0  0  0
    2.6019    0.2955   -0.2059 H   0  0  0  0  0  0  0  0  0  0  0  0
    1.3419    1.3268   -0.1217 H   0  0  0  0  0  0  0  0  0  0  0  0
  1  5  1  0  0  0  0
  2  1  1  0  0  0  0
  2  3  1  0  0  0  0
  2  9  1  0  0  0  0
  3 10  1  0  0  0  0
  4 12  1  0  0  0  0
  4 13  1  0  0  0  0
  4  3  1  0  0  0  0
  6  1  1  0  0  0  0
  7  1  1  0  0  0  0
  8  2  1  0  0  0  0
 11  3  1  0  0  0  0
M  END
