048
 OpenBabel08181812023D

 21 20  0  0  0  0  0  0  0  0999 V2000
    3.3277    0.4938   -0.1349 C   0  0  0  0  0  0  0  0  0  0  0  0
    1.8103    0.6011   -0.2910 C   0  0  0  0  0  0  0  0  0  0  0  0
    1.0735   -0.2817    0.7175 C   0  0  0  0  0  0  0  0  0  0  0  0
   -0.3445   -0.1598    0.6825 O   0  0  0  0  0  0  0  0  0  0  0  0
   -0.9587   -0.8560   -0.3981 C   0  0  0  0  0  0  0  0  0  0  0  0
   -2.4700   -0.7464   -0.2641 C   0  0  0  0  0  0  0  0  0  0  0  0
   -2.9948    0.6825   -0.4036 C   0  0  0  0  0  0  0  0  0  0  0  0
    3.6468    0.7885    0.8754 H   0  0  0  0  0  0  0  0  0  0  0  0
    3.6772   -0.5348   -0.3052 H   0  0  0  0  0  0  0  0  0  0  0  0
    3.8497    1.1432   -0.8499 H   0  0  0  0  0  0  0  0  0  0  0  0
    1.5239    0.3210   -1.3159 H   0  0  0  0  0  0  0  0  0  0  0  0
    1.4841    1.6419   -0.1443 H   0  0  0  0  0  0  0  0  0  0  0  0
    1.3675    0.0048    1.7389 H   0  0  0  0  0  0  0  0  0  0  0  0
    1.3644   -1.3423    0.5757 H   0  0  0  0  0  0  0  0  0  0  0  0
   -0.6382   -0.4350   -1.3709 H   0  0  0  0  0  0  0  0  0  0  0  0
   -0.6460   -1.9188   -0.3778 H   0  0  0  0  0  0  0  0  0  0  0  0
   -2.9203   -1.3917   -1.0347 H   0  0  0  0  0  0  0  0  0  0  0  0
   -2.7654   -1.1657    0.7098 H   0  0  0  0  0  0  0  0  0  0  0  0
   -2.5718    1.3334    0.3716 H   0  0  0  0  0  0  0  0  0  0  0  0
   -4.0889    0.7142   -0.3146 H   0  0  0  0  0  0  0  0  0  0  0  0
   -2.7266    1.1078   -1.3819 H   0  0  0  0  0  0  0  0  0  0  0  0
  1  8  1  0  0  0  0
  2 12  1  0  0  0  0
  2  1  1  0  0  0  0
  2  3  1  0  0  0  0
  3 13  1  0  0  0  0
  4  3  1  0  0  0  0
  5 16  1  0  0  0  0
  5  6  1  0  0  0  0
  5  4  1  0  0  0  0
  6 18  1  0  0  0  0
  7 20  1  0  0  0  0
  7  6  1  0  0  0  0
  7 19  1  0  0  0  0
  9  1  1  0  0  0  0
 10  1  1  0  0  0  0
 11  2  1  0  0  0  0
 14  3  1  0  0  0  0
 15  5  1  0  0  0  0
 17  6  1  0  0  0  0
 21  7  1  0  0  0  0
M  END
