368
 OpenBabel08181812023D

 23 22  0  0  0  0  0  0  0  0999 V2000
    2.5192    0.3152   -1.3903 C   0  0  0  0  0  0  0  0  0  0  0  0
    2.6508   -0.3905   -0.0410 C   0  0  0  0  0  0  0  0  0  0  0  0
    2.0487    0.4101    1.1254 C   0  0  0  0  0  0  0  0  0  0  0  0
    0.5599    0.6656    1.0024 C   0  0  0  0  0  0  0  0  0  0  0  0
    0.0333    1.7604    1.0047 O   0  0  0  0  0  0  0  0  0  0  0  0
   -0.1269   -0.5067    0.9030 O   0  0  0  0  0  0  0  0  0  0  0  0
   -1.5678   -0.3971    0.7676 C   0  0  0  0  0  0  0  0  0  0  0  0
   -1.9874   -0.2792   -0.6906 C   0  0  0  0  0  0  0  0  0  0  0  0
   -3.5093   -0.2685   -0.8381 C   0  0  0  0  0  0  0  0  0  0  0  0
    3.0038    1.3018   -1.3732 H   0  0  0  0  0  0  0  0  0  0  0  0
    1.4656    0.4709   -1.6628 H   0  0  0  0  0  0  0  0  0  0  0  0
    2.9846   -0.2735   -2.1919 H   0  0  0  0  0  0  0  0  0  0  0  0
    3.7136   -0.5669    0.1827 H   0  0  0  0  0  0  0  0  0  0  0  0
    2.1724   -1.3791   -0.0839 H   0  0  0  0  0  0  0  0  0  0  0  0
    2.5307    1.3920    1.2135 H   0  0  0  0  0  0  0  0  0  0  0  0
    2.2158   -0.1334    2.0680 H   0  0  0  0  0  0  0  0  0  0  0  0
   -1.9589   -1.3190    1.2184 H   0  0  0  0  0  0  0  0  0  0  0  0
   -1.9138    0.4690    1.3471 H   0  0  0  0  0  0  0  0  0  0  0  0
   -1.5609    0.6448   -1.1073 H   0  0  0  0  0  0  0  0  0  0  0  0
   -1.5563   -1.1201   -1.2546 H   0  0  0  0  0  0  0  0  0  0  0  0
   -3.9585   -1.1880   -0.4356 H   0  0  0  0  0  0  0  0  0  0  0  0
   -3.8020   -0.1906   -1.8930 H   0  0  0  0  0  0  0  0  0  0  0  0
   -3.9563    0.5827   -0.3054 H   0  0  0  0  0  0  0  0  0  0  0  0
  1 10  1  0  0  0  0
  1  2  1  0  0  0  0
  2 13  1  0  0  0  0
  2  3  1  0  0  0  0
  3 15  1  0  0  0  0
  3 16  1  0  0  0  0
  4  5  2  0  0  0  0
  4  3  1  0  0  0  0
  6  4  1  0  0  0  0
  7  6  1  0  0  0  0
  7 17  1  0  0  0  0
  7 18  1  0  0  0  0
  8  7  1  0  0  0  0
  9  8  1  0  0  0  0
  9 21  1  0  0  0  0
  9 23  1  0  0  0  0
 11  1  1  0  0  0  0
 12  1  1  0  0  0  0
 14  2  1  0  0  0  0
 19  8  1  0  0  0  0
 20  8  1  0  0  0  0
 22  9  1  0  0  0  0
M  END
