198
 OpenBabel08181812023D

 14 13  0  0  0  0  0  0  0  0999 V2000
   -1.6663    0.6356    0.4522 C   0  0  0  0  0  0  0  0  0  0  0  0
   -0.7588   -0.5897    0.3492 C   0  0  0  0  0  0  0  0  0  0  0  0
    0.2264   -0.5322   -0.8090 C   0  0  0  0  0  0  0  0  0  0  0  0
    1.1294    0.6088   -0.6919 O   0  0  0  0  0  0  0  0  0  0  0  0
    2.2862    0.3893   -0.0341 C   0  0  0  0  0  0  0  0  0  0  0  0
    2.6512   -0.6511    0.4619 O   0  0  0  0  0  0  0  0  0  0  0  0
   -2.2528    0.7746   -0.4675 H   0  0  0  0  0  0  0  0  0  0  0  0
   -1.0835    1.5511    0.6164 H   0  0  0  0  0  0  0  0  0  0  0  0
   -2.3723    0.5336    1.2863 H   0  0  0  0  0  0  0  0  0  0  0  0
   -0.1985   -0.7381    1.2840 H   0  0  0  0  0  0  0  0  0  0  0  0
   -1.3651   -1.4987    0.2072 H   0  0  0  0  0  0  0  0  0  0  0  0
    0.8276   -1.4479   -0.8647 H   0  0  0  0  0  0  0  0  0  0  0  0
   -0.2898   -0.3676   -1.7639 H   0  0  0  0  0  0  0  0  0  0  0  0
    2.8661    1.3324   -0.0261 H   0  0  0  0  0  0  0  0  0  0  0  0
  1  8  1  0  0  0  0
  1  9  1  0  0  0  0
  2  1  1  0  0  0  0
  2 10  1  0  0  0  0
  3  4  1  0  0  0  0
  3  2  1  0  0  0  0
  4  5  1  0  0  0  0
  5 14  1  0  0  0  0
  5  6  2  0  0  0  0
  7  1  1  0  0  0  0
 11  2  1  0  0  0  0
 12  3  1  0  0  0  0
 13  3  1  0  0  0  0
M  END
