073
 OpenBabel08181812023D

  9  8  0  0  0  0  0  0  0  0999 V2000
   -1.0119    0.1729   -0.0756 C   0  0  0  0  0  0  0  0  0  0  0  0
    0.3516   -0.4684    0.2262 C   0  0  0  0  0  0  0  0  0  0  0  0
    1.4729    0.3660   -0.1923 C   0  0  0  0  0  0  0  0  0  0  0  0
    2.3533    1.0443   -0.5323 N   0  0  0  0  0  0  0  0  0  0  0  0
   -1.1315    0.3516   -1.1506 H   0  0  0  0  0  0  0  0  0  0  0  0
   -1.1172    1.1324    0.4440 H   0  0  0  0  0  0  0  0  0  0  0  0
   -1.8174   -0.4925    0.2574 H   0  0  0  0  0  0  0  0  0  0  0  0
    0.4571   -0.6654    1.3035 H   0  0  0  0  0  0  0  0  0  0  0  0
    0.4430   -1.4409   -0.2803 H   0  0  0  0  0  0  0  0  0  0  0  0
  1  2  1  0  0  0  0
  1  7  1  0  0  0  0
  1  6  1  0  0  0  0
  2  8  1  0  0  0  0
  3  2  1  0  0  0  0
  4  3  3  0  0  0  0
  5  1  1  0  0  0  0
  9  2  1  0  0  0  0
M  END
