114
 OpenBabel08181812023D

 18 18  0  0  0  0  0  0  0  0999 V2000
    2.9250    0.1301   -0.1001 C   0  0  0  0  0  0  0  0  0  0  0  0
    1.4212    0.0586   -0.0482 C   0  0  0  0  0  0  0  0  0  0  0  0
    0.6296    0.9868   -0.7400 C   0  0  0  0  0  0  0  0  0  0  0  0
   -0.7618    0.9223   -0.6967 C   0  0  0  0  0  0  0  0  0  0  0  0
   -1.4212   -0.0713    0.0413 C   0  0  0  0  0  0  0  0  0  0  0  0
   -0.6310   -0.9995    0.7291 C   0  0  0  0  0  0  0  0  0  0  0  0
    0.7630   -0.9351    0.6853 C   0  0  0  0  0  0  0  0  0  0  0  0
   -2.9250   -0.1213    0.1110 C   0  0  0  0  0  0  0  0  0  0  0  0
    3.2961    0.0346   -1.1309 H   0  0  0  0  0  0  0  0  0  0  0  0
    3.2939    1.0915    0.2862 H   0  0  0  0  0  0  0  0  0  0  0  0
    3.3833   -0.6686    0.4963 H   0  0  0  0  0  0  0  0  0  0  0  0
    1.1119    1.7727   -1.3249 H   0  0  0  0  0  0  0  0  0  0  0  0
   -1.3503    1.6567   -1.2504 H   0  0  0  0  0  0  0  0  0  0  0  0
   -1.1130   -1.7902    1.3077 H   0  0  0  0  0  0  0  0  0  0  0  0
    1.3519   -1.6754    1.2304 H   0  0  0  0  0  0  0  0  0  0  0  0
   -3.3043    0.4820    0.9503 H   0  0  0  0  0  0  0  0  0  0  0  0
   -3.2863   -1.1474    0.2590 H   0  0  0  0  0  0  0  0  0  0  0  0
   -3.3830    0.2732   -0.8055 H   0  0  0  0  0  0  0  0  0  0  0  0
  1  2  1  0  0  0  0
  1 10  1  0  0  0  0
  1 11  1  0  0  0  0
  2  7  2  0  0  0  0
  3  4  2  0  0  0  0
  3  2  1  0  0  0  0
  4  5  1  0  0  0  0
  5  8  1  0  0  0  0
  5  6  2  0  0  0  0
  6 14  1  0  0  0  0
  7  6  1  0  0  0  0
  7 15  1  0  0  0  0
  8 17  1  0  0  0  0
  8 16  1  0  0  0  0
  9  1  1  0  0  0  0
 12  3  1  0  0  0  0
 13  4  1  0  0  0  0
 18  8  1  0  0  0  0
M  END
