630
 OpenBabel08181812023D

 26 29  0  0  0  0  0  0  0  0999 V2000
   -3.5172    0.2277    0.0010 C   0  0  0  0  0  0  0  0  0  0  0  0
   -2.7504    1.3783    0.1797 C   0  0  0  0  0  0  0  0  0  0  0  0
   -1.3464    1.3134    0.1832 C   0  0  0  0  0  0  0  0  0  0  0  0
   -0.5239    2.4737    0.3639 C   0  0  0  0  0  0  0  0  0  0  0  0
    0.8386    2.3855    0.3634 C   0  0  0  0  0  0  0  0  0  0  0  0
    1.5046    1.1289    0.1825 C   0  0  0  0  0  0  0  0  0  0  0  0
    2.9053    1.0122    0.1781 C   0  0  0  0  0  0  0  0  0  0  0  0
    3.5172   -0.2277   -0.0010 C   0  0  0  0  0  0  0  0  0  0  0  0
    2.7504   -1.3783   -0.1797 C   0  0  0  0  0  0  0  0  0  0  0  0
    1.3464   -1.3134   -0.1832 C   0  0  0  0  0  0  0  0  0  0  0  0
    0.7104   -0.0460   -0.0004 C   0  0  0  0  0  0  0  0  0  0  0  0
   -0.7104    0.0460    0.0004 C   0  0  0  0  0  0  0  0  0  0  0  0
   -1.5046   -1.1289   -0.1825 C   0  0  0  0  0  0  0  0  0  0  0  0
   -2.9053   -1.0122   -0.1781 C   0  0  0  0  0  0  0  0  0  0  0  0
   -0.8386   -2.3855   -0.3634 C   0  0  0  0  0  0  0  0  0  0  0  0
    0.5239   -2.4737   -0.3639 C   0  0  0  0  0  0  0  0  0  0  0  0
   -4.6051    0.2981    0.0013 H   0  0  0  0  0  0  0  0  0  0  0  0
   -3.2365    2.3450    0.3192 H   0  0  0  0  0  0  0  0  0  0  0  0
   -1.0134    3.4390    0.5031 H   0  0  0  0  0  0  0  0  0  0  0  0
    1.4486    3.2797    0.5024 H   0  0  0  0  0  0  0  0  0  0  0  0
    3.5120    1.9082    0.3174 H   0  0  0  0  0  0  0  0  0  0  0  0
    4.6051   -0.2981   -0.0013 H   0  0  0  0  0  0  0  0  0  0  0  0
    3.2365   -2.3450   -0.3192 H   0  0  0  0  0  0  0  0  0  0  0  0
   -3.5120   -1.9082   -0.3174 H   0  0  0  0  0  0  0  0  0  0  0  0
   -1.4486   -3.2797   -0.5024 H   0  0  0  0  0  0  0  0  0  0  0  0
    1.0134   -3.4390   -0.5031 H   0  0  0  0  0  0  0  0  0  0  0  0
  1 17  1  0  0  0  0
  1  2  2  0  0  0  0
  2  3  1  0  0  0  0
  2 18  1  0  0  0  0
  3  4  2  0  0  0  0
  4 19  1  0  0  0  0
  5  4  1  0  0  0  0
  5 20  1  0  0  0  0
  6  5  2  0  0  0  0
  7  6  1  0  0  0  0
  7 21  1  0  0  0  0
  8  7  2  0  0  0  0
  9  8  1  0  0  0  0
 10  9  2  0  0  0  0
 10 11  1  0  0  0  0
 11 12  2  0  0  0  0
 11  6  1  0  0  0  0
 12  3  1  0  0  0  0
 13 14  2  0  0  0  0
 13 12  1  0  0  0  0
 14  1  1  0  0  0  0
 15 13  1  0  0  0  0
 16 15  2  0  0  0  0
 16 10  1  0  0  0  0
 22  8  1  0  0  0  0
 23  9  1  0  0  0  0
 24 14  1  0  0  0  0
 25 15  1  0  0  0  0
 26 16  1  0  0  0  0
M  END
