115
 OpenBabel08181812023D

 11 11  0  0  0  0  0  0  0  0999 V2000
    0.0463    1.1937    0.0523 C   0  0  0  0  0  0  0  0  0  0  0  0
   -1.1783    0.5270    0.0602 C   0  0  0  0  0  0  0  0  0  0  0  0
   -1.1774   -0.8680   -0.0026 C   0  0  0  0  0  0  0  0  0  0  0  0
   -0.0625   -1.6098   -0.0706 N   0  0  0  0  0  0  0  0  0  0  0  0
    1.1068   -0.9533   -0.0773 C   0  0  0  0  0  0  0  0  0  0  0  0
    1.2157    0.4375   -0.0180 C   0  0  0  0  0  0  0  0  0  0  0  0
    0.0885    2.2822    0.1001 H   0  0  0  0  0  0  0  0  0  0  0  0
   -2.1193    1.0741    0.1143 H   0  0  0  0  0  0  0  0  0  0  0  0
   -2.1205   -1.4209    0.0018 H   0  0  0  0  0  0  0  0  0  0  0  0
    2.0043   -1.5751   -0.1332 H   0  0  0  0  0  0  0  0  0  0  0  0
    2.1964    0.9129   -0.0271 H   0  0  0  0  0  0  0  0  0  0  0  0
  1  2  1  0  0  0  0
  1  7  1  0  0  0  0
  2  8  1  0  0  0  0
  3  9  1  0  0  0  0
  3  2  2  0  0  0  0
  4  3  1  0  0  0  0
  5  4  2  0  0  0  0
  5  6  1  0  0  0  0
  6  1  2  0  0  0  0
 10  5  1  0  0  0  0
 11  6  1  0  0  0  0
M  END
