551
 OpenBabel08181812023D

 10 10  0  0  0  0  0  0  0  0999 V2000
    0.0914    1.1945    0.0247 C   0  0  0  0  0  0  0  0  0  0  0  0
   -1.1149    0.4392   -0.0051 C   0  0  0  0  0  0  0  0  0  0  0  0
   -0.7662   -0.8980   -0.0271 C   0  0  0  0  0  0  0  0  0  0  0  0
    0.6069   -0.9687   -0.0117 N   0  0  0  0  0  0  0  0  0  0  0  0
    1.1425    0.2972    0.0199 C   0  0  0  0  0  0  0  0  0  0  0  0
    0.1834    2.2748    0.0472 H   0  0  0  0  0  0  0  0  0  0  0  0
   -2.1272    0.8281   -0.0098 H   0  0  0  0  0  0  0  0  0  0  0  0
   -1.3740   -1.7946   -0.0523 H   0  0  0  0  0  0  0  0  0  0  0  0
    1.1433   -1.8251   -0.0219 H   0  0  0  0  0  0  0  0  0  0  0  0
    2.2147    0.4525    0.0361 H   0  0  0  0  0  0  0  0  0  0  0  0
  1  6  1  0  0  0  0
  2  1  1  0  0  0  0
  3  4  1  0  0  0  0
  3  2  2  0  0  0  0
  4  5  1  0  0  0  0
  5  1  2  0  0  0  0
  5 10  1  0  0  0  0
  7  2  1  0  0  0  0
  8  3  1  0  0  0  0
  9  4  1  0  0  0  0
M  END
