222
 OpenBabel08181812023D

 14 14  0  0  0  0  0  0  0  0999 V2000
    0.7160    0.9422    0.1004 C   0  0  0  0  0  0  0  0  0  0  0  0
   -0.8260    0.8197    0.2378 C   0  0  0  0  0  0  0  0  0  0  0  0
   -1.0962   -0.7041    0.1451 C   0  0  0  0  0  0  0  0  0  0  0  0
    0.0508   -1.3042   -0.5531 N   0  0  0  0  0  0  0  0  0  0  0  0
    1.2011   -0.5205   -0.0781 C   0  0  0  0  0  0  0  0  0  0  0  0
    0.9812    1.5469   -0.7774 H   0  0  0  0  0  0  0  0  0  0  0  0
    1.1769    1.4227    0.9735 H   0  0  0  0  0  0  0  0  0  0  0  0
   -1.3321    1.3508   -0.5800 H   0  0  0  0  0  0  0  0  0  0  0  0
   -1.1984    1.2465    1.1787 H   0  0  0  0  0  0  0  0  0  0  0  0
   -2.0338   -0.9541   -0.3671 H   0  0  0  0  0  0  0  0  0  0  0  0
   -1.1460   -1.1408    1.1554 H   0  0  0  0  0  0  0  0  0  0  0  0
   -0.0595   -1.1500   -1.5576 H   0  0  0  0  0  0  0  0  0  0  0  0
    2.0470   -0.6203   -0.7698 H   0  0  0  0  0  0  0  0  0  0  0  0
    1.5191   -0.9349    0.8921 H   0  0  0  0  0  0  0  0  0  0  0  0
  1  2  1  0  0  0  0
  1  7  1  0  0  0  0
  2  9  1  0  0  0  0
  3  2  1  0  0  0  0
  3 11  1  0  0  0  0
  4  5  1  0  0  0  0
  4  3  1  0  0  0  0
  5  1  1  0  0  0  0
  5 14  1  0  0  0  0
  6  1  1  0  0  0  0
  8  2  1  0  0  0  0
 10  3  1  0  0  0  0
 12  4  1  0  0  0  0
 13  5  1  0  0  0  0
M  END
