236
 OpenBabel08181812023D

 13 12  0  0  1  0  0  0  0  0999 V2000
   -0.9920    0.9767   -0.1864 C   0  0  0  0  0  0  0  0  0  0  0  0
   -0.3030   -0.3722   -0.3368 C   0  0  1  0  0  0  0  0  0  0  0  0
    1.0206   -0.4420    0.4179 C   0  0  0  0  0  0  0  0  0  0  0  0
    1.9190    0.4969   -0.1805 O   0  0  0  0  0  0  0  0  0  0  0  0
   -1.0918   -1.4477    0.1960 O   0  0  0  0  0  0  0  0  0  0  0  0
   -0.3425    1.7798   -0.5578 H   0  0  0  0  0  0  0  0  0  0  0  0
   -1.9289    1.0057   -0.7621 H   0  0  0  0  0  0  0  0  0  0  0  0
   -1.2251    1.1715    0.8700 H   0  0  0  0  0  0  0  0  0  0  0  0
   -0.0866   -0.5555   -1.4063 H   0  0  0  0  0  0  0  0  0  0  0  0
    0.8403   -0.2079    1.4829 H   0  0  0  0  0  0  0  0  0  0  0  0
    1.4079   -1.4727    0.3510 H   0  0  0  0  0  0  0  0  0  0  0  0
    2.7695    0.4297    0.2764 H   0  0  0  0  0  0  0  0  0  0  0  0
   -1.9874   -1.3624   -0.1644 H   0  0  0  0  0  0  0  0  0  0  0  0
  1  8  1  0  0  0  0
  2  9  1  6  0  0  0
  2  1  1  0  0  0  0
  2  5  1  0  0  0  0
  2  3  1  0  0  0  0
  3 10  1  0  0  0  0
  4 12  1  0  0  0  0
  4  3  1  0  0  0  0
  6  1  1  0  0  0  0
  7  1  1  0  0  0  0
 11  3  1  0  0  0  0
 13  5  1  0  0  0  0
M  END
