538
 OpenBabel08181812023D

 15 15  0  0  0  0  0  0  0  0999 V2000
   -1.3420   -1.2469   -0.6120 C   0  0  0  0  0  0  0  0  0  0  0  0
   -2.0267   -0.2016    0.0343 C   0  0  0  0  0  0  0  0  0  0  0  0
   -1.3510    0.8730    0.5977 C   0  0  0  0  0  0  0  0  0  0  0  0
    0.0503    0.9281    0.5263 C   0  0  0  0  0  0  0  0  0  0  0  0
    0.7559   -0.1242   -0.1262 C   0  0  0  0  0  0  0  0  0  0  0  0
    0.0395   -1.2006   -0.6874 C   0  0  0  0  0  0  0  0  0  0  0  0
    2.1993   -0.0746   -0.2054 C   0  0  0  0  0  0  0  0  0  0  0  0
    2.8903    0.8418    0.2662 O   0  0  0  0  0  0  0  0  0  0  0  0
    0.7026    1.9634    1.0690 O   0  0  0  0  0  0  0  0  0  0  0  0
   -1.8957   -2.0785   -1.0446 H   0  0  0  0  0  0  0  0  0  0  0  0
   -3.1150   -0.2325    0.0964 H   0  0  0  0  0  0  0  0  0  0  0  0
   -1.8824    1.6819    1.0974 H   0  0  0  0  0  0  0  0  0  0  0  0
    0.5994   -1.9968   -1.1826 H   0  0  0  0  0  0  0  0  0  0  0  0
    2.6953   -0.9237   -0.7273 H   0  0  0  0  0  0  0  0  0  0  0  0
    1.6803    1.7911    0.8984 H   0  0  0  0  0  0  0  0  0  0  0  0
  1  2  1  0  0  0  0
  2 11  1  0  0  0  0
  2  3  2  0  0  0  0
  3 12  1  0  0  0  0
  4  3  1  0  0  0  0
  4  9  1  0  0  0  0
  5  4  2  0  0  0  0
  6  1  2  0  0  0  0
  6  5  1  0  0  0  0
  7  5  1  0  0  0  0
  7  8  2  0  0  0  0
 10  1  1  0  0  0  0
 13  6  1  0  0  0  0
 14  7  1  0  0  0  0
 15  9  1  0  0  0  0
M  END
