425
 OpenBabel08181812023D

  8  7  0  0  1  0  0  0  0  0999 V2000
    0.7279   -0.2238   -0.0564 C   0  0  2  0  0  0  0  0  0  0  0  0
   -0.7759    0.1198   -0.0457 C   0  0  0  0  0  0  0  0  0  0  0  0
   -1.4544   -0.8779   -0.6644 F   0  0  0  0  0  0  0  0  0  0  0  0
   -1.2658    0.2497    1.1982 F   0  0  0  0  0  0  0  0  0  0  0  0
   -1.0028    1.2619   -0.7280 F   0  0  0  0  0  0  0  0  0  0  0  0
    0.9141   -1.4105    0.5901 F   0  0  0  0  0  0  0  0  0  0  0  0
    1.7737    1.1844    0.7969 Br  0  0  0  0  0  0  0  0  0  0  0  0
    1.0833   -0.3035   -1.0907 H   0  0  0  0  0  0  0  0  0  0  0  0
  1  8  1  6  0  0  0
  1  2  1  0  0  0  0
  1  6  1  0  0  0  0
  1  7  1  0  0  0  0
  2  4  1  0  0  0  0
  3  2  1  0  0  0  0
  5  2  1  0  0  0  0
M  END
