389
 OpenBabel08181812023D

 16 15  0  0  0  0  0  0  0  0999 V2000
   -0.8362   -0.9750   -0.6904 C   0  0  0  0  0  0  0  0  0  0  0  0
    0.0726   -0.0204    0.1081 C   0  0  0  0  0  0  0  0  0  0  0  0
    1.2014    0.4968   -0.7924 C   0  0  0  0  0  0  0  0  0  0  0  0
   -0.7530    1.1558    0.6444 C   0  0  0  0  0  0  0  0  0  0  0  0
    0.7051   -0.6801    1.2711 N   0  0  0  0  0  0  0  0  0  0  0  0
   -0.2603   -1.8314   -1.0708 H   0  0  0  0  0  0  0  0  0  0  0  0
   -1.2999   -0.4714   -1.5519 H   0  0  0  0  0  0  0  0  0  0  0  0
   -1.6438   -1.3652   -0.0537 H   0  0  0  0  0  0  0  0  0  0  0  0
    0.7971    1.0324   -1.6619 H   0  0  0  0  0  0  0  0  0  0  0  0
    1.8560    1.1767   -0.2321 H   0  0  0  0  0  0  0  0  0  0  0  0
    1.8151   -0.3359   -1.1677 H   0  0  0  0  0  0  0  0  0  0  0  0
   -1.2232    1.7136   -0.1767 H   0  0  0  0  0  0  0  0  0  0  0  0
   -1.5543    0.8002    1.3095 H   0  0  0  0  0  0  0  0  0  0  0  0
   -0.1146    1.8412    1.2167 H   0  0  0  0  0  0  0  0  0  0  0  0
    1.2548   -1.4828    0.9565 H   0  0  0  0  0  0  0  0  0  0  0  0
   -0.0167   -1.0544    1.8911 H   0  0  0  0  0  0  0  0  0  0  0  0
  1  8  1  0  0  0  0
  1  2  1  0  0  0  0
  2  4  1  0  0  0  0
  2  5  1  0  0  0  0
  3 10  1  0  0  0  0
  3  2  1  0  0  0  0
  4 14  1  0  0  0  0
  4 13  1  0  0  0  0
  5 16  1  0  0  0  0
  6  1  1  0  0  0  0
  7  1  1  0  0  0  0
  9  3  1  0  0  0  0
 11  3  1  0  0  0  0
 12  4  1  0  0  0  0
 15  5  1  0  0  0  0
M  END
