564
 OpenBabel08181812023D

  5  4  0  0  0  0  0  0  0  0999 V2000
   -0.2364    1.8967   -0.9645 Cl  0  0  0  0  0  0  0  0  0  0  0  0
    0.0000    0.0000    0.0000 Ge  0  0  0  0  0  0  0  0  0  0  0  0
   -1.6859   -1.2421   -0.4452 Cl  0  0  0  0  0  0  0  0  0  0  0  0
    1.7874   -0.9425   -0.7074 Cl  0  0  0  0  0  0  0  0  0  0  0  0
    0.1350    0.2879    2.1172 Cl  0  0  0  0  0  0  0  0  0  0  0  0
  1  2  1  0  0  0  0
  2  5  1  0  0  0  0
  3  2  1  0  0  0  0
  4  2  1  0  0  0  0
M  END
