408
 OpenBabel08181812023D

  8  7  0  0  0  0  0  0  0  0999 V2000
   -0.7750   -0.2050   -0.1477 C   0  0  0  0  0  0  0  0  0  0  0  0
    0.7091    0.0945    0.0773 C   0  0  0  0  0  0  0  0  0  0  0  0
    1.1775    1.6468   -0.6637 Cl  0  0  0  0  0  0  0  0  0  0  0  0
    1.6076   -1.2412   -0.7286 Cl  0  0  0  0  0  0  0  0  0  0  0  0
    1.1124    0.1082    1.8137 Cl  0  0  0  0  0  0  0  0  0  0  0  0
   -1.8641    1.0046    0.5751 Cl  0  0  0  0  0  0  0  0  0  0  0  0
   -1.0037   -1.1777    0.2998 H   0  0  0  0  0  0  0  0  0  0  0  0
   -0.9638   -0.2302   -1.2259 H   0  0  0  0  0  0  0  0  0  0  0  0
  1  2  1  0  0  0  0
  1  7  1  0  0  0  0
  1  6  1  0  0  0  0
  2  5  1  0  0  0  0
  3  2  1  0  0  0  0
  4  2  1  0  0  0  0
  8  1  1  0  0  0  0
M  END
