563
 OpenBabel08181812023D

  5  4  0  0  0  0  0  0  0  0999 V2000
    0.0000    0.0000   -0.0000 Ge  0  0  0  0  0  0  0  0  0  0  0  0
   -1.2967   -1.3545   -1.3478 Br  0  0  0  0  0  0  0  0  0  0  0  0
    0.0081    2.1481   -0.8477 Br  0  0  0  0  0  0  0  0  0  0  0  0
   -0.8721    0.0195    2.1382 Br  0  0  0  0  0  0  0  0  0  0  0  0
    2.1607   -0.8131    0.0573 Br  0  0  0  0  0  0  0  0  0  0  0  0
  1  5  1  0  0  0  0
  1  4  1  0  0  0  0
  2  1  1  0  0  0  0
  3  1  1  0  0  0  0
M  END
