054
 OpenBabel08181812023D

 13 13  0  0  0  0  0  0  0  0999 V2000
   -0.3845   -0.9440   -0.3465 C   0  0  0  0  0  0  0  0  0  0  0  0
    0.9582   -0.4464    0.2039 C   0  0  0  0  0  0  0  0  0  0  0  0
    0.8309    1.0648    0.0086 C   0  0  0  0  0  0  0  0  0  0  0  0
   -0.5680    1.3764    0.1412 O   0  0  0  0  0  0  0  0  0  0  0  0
   -1.3361    0.1595    0.1169 C   0  0  0  0  0  0  0  0  0  0  0  0
   -0.3544   -0.9905   -1.4447 H   0  0  0  0  0  0  0  0  0  0  0  0
   -0.6701   -1.9345    0.0291 H   0  0  0  0  0  0  0  0  0  0  0  0
    1.8269   -0.8688   -0.3164 H   0  0  0  0  0  0  0  0  0  0  0  0
    1.0479   -0.6903    1.2724 H   0  0  0  0  0  0  0  0  0  0  0  0
    1.3893    1.6487    0.7546 H   0  0  0  0  0  0  0  0  0  0  0  0
    1.1770    1.3677   -0.9961 H   0  0  0  0  0  0  0  0  0  0  0  0
   -1.7221   -0.0467    1.1315 H   0  0  0  0  0  0  0  0  0  0  0  0
   -2.1950    0.3040   -0.5545 H   0  0  0  0  0  0  0  0  0  0  0  0
  1  7  1  0  0  0  0
  1  5  1  0  0  0  0
  1  2  1  0  0  0  0
  2  9  1  0  0  0  0
  3  4  1  0  0  0  0
  3  2  1  0  0  0  0
  3 10  1  0  0  0  0
  5  4  1  0  0  0  0
  5 12  1  0  0  0  0
  6  1  1  0  0  0  0
  8  2  1  0  0  0  0
 11  3  1  0  0  0  0
 13  5  1  0  0  0  0
M  END
