188
 OpenBabel08181812023D

  6  5  0  0  0  0  0  0  0  0999 V2000
    0.6682    0.0160   -0.1034 C   0  0  0  0  0  0  0  0  0  0  0  0
   -0.6682   -0.0160    0.1034 C   0  0  0  0  0  0  0  0  0  0  0  0
   -1.5882    1.4104    0.3605 Cl  0  0  0  0  0  0  0  0  0  0  0  0
   -1.5545   -1.4860    0.1283 Cl  0  0  0  0  0  0  0  0  0  0  0  0
    1.5545    1.4860   -0.1283 Cl  0  0  0  0  0  0  0  0  0  0  0  0
    1.5882   -1.4104   -0.3605 Cl  0  0  0  0  0  0  0  0  0  0  0  0
  1  2  2  0  0  0  0
  2  4  1  0  0  0  0
  2  3  1  0  0  0  0
  5  1  1  0  0  0  0
  6  1  1  0  0  0  0
M  END
