193
 OpenBabel08181812023D

 16 16  0  0  0  0  0  0  0  0999 V2000
   -0.3730    1.2108    0.1264 C   0  0  0  0  0  0  0  0  0  0  0  0
   -1.4263    0.0875    0.0610 C   0  0  0  0  0  0  0  0  0  0  0  0
   -0.7546   -1.2427   -0.3320 C   0  0  0  0  0  0  0  0  0  0  0  0
    0.3836   -1.0151   -1.1616 O   0  0  0  0  0  0  0  0  0  0  0  0
    1.4563   -0.4168   -0.4231 C   0  0  0  0  0  0  0  0  0  0  0  0
    0.9676    0.6366    0.5905 C   0  0  0  0  0  0  0  0  0  0  0  0
   -0.7075    2.0174    0.7927 H   0  0  0  0  0  0  0  0  0  0  0  0
   -0.2462    1.6561   -0.8712 H   0  0  0  0  0  0  0  0  0  0  0  0
   -2.2095    0.3488   -0.6640 H   0  0  0  0  0  0  0  0  0  0  0  0
   -1.9208   -0.0334    1.0374 H   0  0  0  0  0  0  0  0  0  0  0  0
   -1.4323   -1.8820   -0.9121 H   0  0  0  0  0  0  0  0  0  0  0  0
   -0.4535   -1.8124    0.5687 H   0  0  0  0  0  0  0  0  0  0  0  0
    2.0410   -1.2061    0.0872 H   0  0  0  0  0  0  0  0  0  0  0  0
    2.1021    0.0440   -1.1834 H   0  0  0  0  0  0  0  0  0  0  0  0
    0.8451    0.1840    1.5867 H   0  0  0  0  0  0  0  0  0  0  0  0
    1.7278    1.4232    0.6969 H   0  0  0  0  0  0  0  0  0  0  0  0
  1  6  1  0  0  0  0
  1  7  1  0  0  0  0
  2  1  1  0  0  0  0
  2 10  1  0  0  0  0
  3  2  1  0  0  0  0
  3 12  1  0  0  0  0
  4  5  1  0  0  0  0
  4  3  1  0  0  0  0
  5 13  1  0  0  0  0
  5  6  1  0  0  0  0
  6 16  1  0  0  0  0
  6 15  1  0  0  0  0
  8  1  1  0  0  0  0
  9  2  1  0  0  0  0
 11  3  1  0  0  0  0
 14  5  1  0  0  0  0
M  END
