095
 OpenBabel08181812023D

 15 15  0  0  0  0  0  0  0  0999 V2000
    2.2293   -0.0436    0.0327 C   0  0  0  0  0  0  0  0  0  0  0  0
    0.7231   -0.0193    0.0097 C   0  0  0  0  0  0  0  0  0  0  0  0
   -0.0190   -1.1892   -0.1950 C   0  0  0  0  0  0  0  0  0  0  0  0
   -1.4157   -1.1632   -0.2156 C   0  0  0  0  0  0  0  0  0  0  0  0
   -2.0969    0.0400   -0.0309 C   0  0  0  0  0  0  0  0  0  0  0  0
   -1.3698    1.2154    0.1744 C   0  0  0  0  0  0  0  0  0  0  0  0
    0.0240    1.1835    0.1941 C   0  0  0  0  0  0  0  0  0  0  0  0
    2.6163   -1.0577   -0.1262 H   0  0  0  0  0  0  0  0  0  0  0  0
    2.6195    0.3193    0.9946 H   0  0  0  0  0  0  0  0  0  0  0  0
    2.6506    0.6044   -0.7495 H   0  0  0  0  0  0  0  0  0  0  0  0
    0.5059   -2.1353   -0.3404 H   0  0  0  0  0  0  0  0  0  0  0  0
   -1.9718   -2.0873   -0.3764 H   0  0  0  0  0  0  0  0  0  0  0  0
   -3.1865    0.0634   -0.0465 H   0  0  0  0  0  0  0  0  0  0  0  0
   -1.8917    2.1619    0.3195 H   0  0  0  0  0  0  0  0  0  0  0  0
    0.5829    2.1076    0.3552 H   0  0  0  0  0  0  0  0  0  0  0  0
  1  9  1  0  0  0  0
  2  1  1  0  0  0  0
  2  7  2  0  0  0  0
  3  2  1  0  0  0  0
  4  3  2  0  0  0  0
  4  5  1  0  0  0  0
  5  6  2  0  0  0  0
  6  7  1  0  0  0  0
  6 14  1  0  0  0  0
  7 15  1  0  0  0  0
  8  1  1  0  0  0  0
 10  1  1  0  0  0  0
 11  3  1  0  0  0  0
 12  4  1  0  0  0  0
 13  5  1  0  0  0  0
M  END
