335
 OpenBabel08181812023D

 44 43  0  0  0  0  0  0  0  0999 V2000
    1.4329    4.6428   -0.4821 C   0  0  0  0  0  0  0  0  0  0  0  0
   -0.0404    4.3184   -0.2215 C   0  0  0  0  0  0  0  0  0  0  0  0
   -0.4866    2.9373   -0.7209 C   0  0  0  0  0  0  0  0  0  0  0  0
    0.1456    1.7906    0.0487 C   0  0  0  0  0  0  0  0  0  0  0  0
   -0.3622    0.5414   -0.4980 O   0  0  0  0  0  0  0  0  0  0  0  0
   -0.2221   -0.7932    0.3742 P   0  0  0  0  0  0  0  0  0  0  0  0
   -0.5508   -0.6660    1.8113 O   0  0  0  0  0  0  0  0  0  0  0  0
    1.2698   -1.2554    0.0278 O   0  0  0  0  0  0  0  0  0  0  0  0
    1.8458   -2.3680    0.7699 C   0  0  0  0  0  0  0  0  0  0  0  0
    3.3062   -2.5071    0.3807 C   0  0  0  0  0  0  0  0  0  0  0  0
    4.1829   -1.3210    0.7880 C   0  0  0  0  0  0  0  0  0  0  0  0
    5.6448   -1.5002    0.3801 C   0  0  0  0  0  0  0  0  0  0  0  0
   -1.0972   -1.8418   -0.4568 O   0  0  0  0  0  0  0  0  0  0  0  0
   -2.5184   -1.9822   -0.1710 C   0  0  0  0  0  0  0  0  0  0  0  0
   -3.3555   -1.2490   -1.2088 C   0  0  0  0  0  0  0  0  0  0  0  0
   -4.8652   -1.4355   -1.0026 C   0  0  0  0  0  0  0  0  0  0  0  0
   -5.4212   -0.7560    0.2515 C   0  0  0  0  0  0  0  0  0  0  0  0
    1.6724    4.5580   -1.5520 H   0  0  0  0  0  0  0  0  0  0  0  0
    1.6723    5.6677   -0.1687 H   0  0  0  0  0  0  0  0  0  0  0  0
    2.1086    3.9706    0.0632 H   0  0  0  0  0  0  0  0  0  0  0  0
   -0.2537    4.4031    0.8568 H   0  0  0  0  0  0  0  0  0  0  0  0
   -0.6674    5.0777   -0.7122 H   0  0  0  0  0  0  0  0  0  0  0  0
   -0.2449    2.8290   -1.7901 H   0  0  0  0  0  0  0  0  0  0  0  0
   -1.5796    2.8482   -0.6322 H   0  0  0  0  0  0  0  0  0  0  0  0
    1.2411    1.7865   -0.0527 H   0  0  0  0  0  0  0  0  0  0  0  0
   -0.1094    1.8413    1.1179 H   0  0  0  0  0  0  0  0  0  0  0  0
    1.2849   -3.2808    0.5192 H   0  0  0  0  0  0  0  0  0  0  0  0
    1.7306   -2.1681    1.8459 H   0  0  0  0  0  0  0  0  0  0  0  0
    3.6833   -3.4284    0.8551 H   0  0  0  0  0  0  0  0  0  0  0  0
    3.3715   -2.6683   -0.7072 H   0  0  0  0  0  0  0  0  0  0  0  0
    4.1141   -1.1804    1.8790 H   0  0  0  0  0  0  0  0  0  0  0  0
    3.7804   -0.4039    0.3336 H   0  0  0  0  0  0  0  0  0  0  0  0
    5.7422   -1.6056   -0.7101 H   0  0  0  0  0  0  0  0  0  0  0  0
    6.2561   -0.6409    0.6862 H   0  0  0  0  0  0  0  0  0  0  0  0
    6.0813   -2.3998    0.8384 H   0  0  0  0  0  0  0  0  0  0  0  0
   -2.7096   -1.6289    0.8514 H   0  0  0  0  0  0  0  0  0  0  0  0
   -2.7166   -3.0629   -0.2063 H   0  0  0  0  0  0  0  0  0  0  0  0
   -3.1030   -0.1778   -1.1848 H   0  0  0  0  0  0  0  0  0  0  0  0
   -3.0682   -1.6191   -2.2043 H   0  0  0  0  0  0  0  0  0  0  0  0
   -5.1017   -2.5124   -0.9777 H   0  0  0  0  0  0  0  0  0  0  0  0
   -5.3838   -1.0363   -1.8871 H   0  0  0  0  0  0  0  0  0  0  0  0
   -6.5122   -0.8680    0.3103 H   0  0  0  0  0  0  0  0  0  0  0  0
   -4.9996   -1.1759    1.1745 H   0  0  0  0  0  0  0  0  0  0  0  0
   -5.1973    0.3204    0.2472 H   0  0  0  0  0  0  0  0  0  0  0  0
  1  2  1  0  0  0  0
  1 19  1  0  0  0  0
  1 20  1  0  0  0  0
  2 21  1  0  0  0  0
  3 24  1  0  0  0  0
  3  2  1  0  0  0  0
  3  4  1  0  0  0  0
  4 26  1  0  0  0  0
  5  4  1  0  0  0  0
  5  6  1  0  0  0  0
  6  7  2  0  0  0  0
  8  6  1  0  0  0  0
  8  9  1  0  0  0  0
  9 28  1  0  0  0  0
 10  9  1  0  0  0  0
 10 11  1  0  0  0  0
 10 29  1  0  0  0  0
 11 31  1  0  0  0  0
 12 34  1  0  0  0  0
 12 11  1  0  0  0  0
 12 35  1  0  0  0  0
 13 14  1  0  0  0  0
 13  6  1  0  0  0  0
 14 36  1  0  0  0  0
 15 38  1  0  0  0  0
 15 16  1  0  0  0  0
 15 14  1  0  0  0  0
 16 40  1  0  0  0  0
 16 17  1  0  0  0  0
 17 42  1  0  0  0  0
 17 43  1  0  0  0  0
 18  1  1  0  0  0  0
 22  2  1  0  0  0  0
 23  3  1  0  0  0  0
 25  4  1  0  0  0  0
 27  9  1  0  0  0  0
 30 10  1  0  0  0  0
 32 11  1  0  0  0  0
 33 12  1  0  0  0  0
 37 14  1  0  0  0  0
 39 15  1  0  0  0  0
 41 16  1  0  0  0  0
 44 17  1  0  0  0  0
M  END
