174
 OpenBabel08181812023D

 71 70  0  0  0  0  0  0  0  0999 V2000
    9.3188    1.9713   -1.2404 C   0  0  0  0  0  0  0  0  0  0  0  0
    8.5837    0.6302   -1.1847 C   0  0  0  0  0  0  0  0  0  0  0  0
    7.5741    0.5037   -0.0352 C   0  0  0  0  0  0  0  0  0  0  0  0
    8.2064    0.4844    1.3591 C   0  0  0  0  0  0  0  0  0  0  0  0
    7.2186    0.3737    2.5305 C   0  0  0  0  0  0  0  0  0  0  0  0
    6.3848   -0.9238    2.5761 C   0  0  0  0  0  0  0  0  0  0  0  0
    4.9776   -0.8143    1.9771 C   0  0  0  0  0  0  0  0  0  0  0  0
    4.2102   -2.1388    2.0115 C   0  0  0  0  0  0  0  0  0  0  0  0
    2.7499   -2.0510    1.5492 C   0  0  0  0  0  0  0  0  0  0  0  0
    2.5719   -1.6857    0.0711 C   0  0  0  0  0  0  0  0  0  0  0  0
    1.1257   -1.7730   -0.4364 C   0  0  0  0  0  0  0  0  0  0  0  0
    0.1704   -0.7490    0.1861 C   0  0  0  0  0  0  0  0  0  0  0  0
   -1.2775   -0.8368   -0.3183 C   0  0  0  0  0  0  0  0  0  0  0  0
   -1.4664   -0.4553   -1.7904 C   0  0  0  0  0  0  0  0  0  0  0  0
   -2.9134   -0.5563   -2.2922 C   0  0  0  0  0  0  0  0  0  0  0  0
   -3.8752    0.4877   -1.7167 C   0  0  0  0  0  0  0  0  0  0  0  0
   -5.2950    0.3574   -2.2760 C   0  0  0  0  0  0  0  0  0  0  0  0
   -6.2623    1.4710   -1.8501 C   0  0  0  0  0  0  0  0  0  0  0  0
   -6.5328    1.5836   -0.3415 C   0  0  0  0  0  0  0  0  0  0  0  0
   -7.1313    0.3333    0.3213 C   0  0  0  0  0  0  0  0  0  0  0  0
   -8.4826   -0.1340   -0.2418 C   0  0  0  0  0  0  0  0  0  0  0  0
   -9.6304    0.8817   -0.1477 C   0  0  0  0  0  0  0  0  0  0  0  0
  -10.0009    1.2829    1.2815 C   0  0  0  0  0  0  0  0  0  0  0  0
    8.6085    2.8069   -1.3256 H   0  0  0  0  0  0  0  0  0  0  0  0
    9.9919    2.0191   -2.1070 H   0  0  0  0  0  0  0  0  0  0  0  0
    9.9288    2.1447   -0.3439 H   0  0  0  0  0  0  0  0  0  0  0  0
    8.0539    0.4740   -2.1371 H   0  0  0  0  0  0  0  0  0  0  0  0
    9.3178   -0.1892   -1.1096 H   0  0  0  0  0  0  0  0  0  0  0  0
    6.9939   -0.4202   -0.1833 H   0  0  0  0  0  0  0  0  0  0  0  0
    6.8487    1.3338   -0.0959 H   0  0  0  0  0  0  0  0  0  0  0  0
    8.8081    1.3960    1.5014 H   0  0  0  0  0  0  0  0  0  0  0  0
    8.9174   -0.3587    1.4141 H   0  0  0  0  0  0  0  0  0  0  0  0
    6.5389    1.2428    2.5184 H   0  0  0  0  0  0  0  0  0  0  0  0
    7.7968    0.4627    3.4629 H   0  0  0  0  0  0  0  0  0  0  0  0
    6.2822   -1.2549    3.6221 H   0  0  0  0  0  0  0  0  0  0  0  0
    6.9380   -1.7307    2.0648 H   0  0  0  0  0  0  0  0  0  0  0  0
    5.0399   -0.4421    0.9435 H   0  0  0  0  0  0  0  0  0  0  0  0
    4.4100   -0.0521    2.5391 H   0  0  0  0  0  0  0  0  0  0  0  0
    4.2329   -2.5322    3.0415 H   0  0  0  0  0  0  0  0  0  0  0  0
    4.7429   -2.8823    1.3932 H   0  0  0  0  0  0  0  0  0  0  0  0
    2.2618   -3.0234    1.7301 H   0  0  0  0  0  0  0  0  0  0  0  0
    2.2200   -1.3222    2.1840 H   0  0  0  0  0  0  0  0  0  0  0  0
    3.2003   -2.3608   -0.5338 H   0  0  0  0  0  0  0  0  0  0  0  0
    2.9548   -0.6688   -0.1144 H   0  0  0  0  0  0  0  0  0  0  0  0
    1.1330   -1.6500   -1.5302 H   0  0  0  0  0  0  0  0  0  0  0  0
    0.7368   -2.7889   -0.2471 H   0  0  0  0  0  0  0  0  0  0  0  0
    0.5592    0.2674   -0.0005 H   0  0  0  0  0  0  0  0  0  0  0  0
    0.1651   -0.8749    1.2795 H   0  0  0  0  0  0  0  0  0  0  0  0
   -1.9056   -0.1868    0.3104 H   0  0  0  0  0  0  0  0  0  0  0  0
   -1.6527   -1.8635   -0.1627 H   0  0  0  0  0  0  0  0  0  0  0  0
   -0.8353   -1.1021   -2.4186 H   0  0  0  0  0  0  0  0  0  0  0  0
   -1.0976    0.5733   -1.9476 H   0  0  0  0  0  0  0  0  0  0  0  0
   -2.9165   -0.4637   -3.3907 H   0  0  0  0  0  0  0  0  0  0  0  0
   -3.3007   -1.5670   -2.0754 H   0  0  0  0  0  0  0  0  0  0  0  0
   -3.4871    1.4968   -1.9414 H   0  0  0  0  0  0  0  0  0  0  0  0
   -3.9001    0.4088   -0.6190 H   0  0  0  0  0  0  0  0  0  0  0  0
   -5.7054   -0.6264   -1.9932 H   0  0  0  0  0  0  0  0  0  0  0  0
   -5.2412    0.3486   -3.3774 H   0  0  0  0  0  0  0  0  0  0  0  0
   -7.2164    1.3308   -2.3828 H   0  0  0  0  0  0  0  0  0  0  0  0
   -5.8651    2.4373   -2.2031 H   0  0  0  0  0  0  0  0  0  0  0  0
   -5.5967    1.8388    0.1799 H   0  0  0  0  0  0  0  0  0  0  0  0
   -7.2018    2.4428   -0.1743 H   0  0  0  0  0  0  0  0  0  0  0  0
   -6.4162   -0.5011    0.2416 H   0  0  0  0  0  0  0  0  0  0  0  0
   -7.2317    0.5272    1.4009 H   0  0  0  0  0  0  0  0  0  0  0  0
   -8.3574   -0.4289   -1.2956 H   0  0  0  0  0  0  0  0  0  0  0  0
   -8.7807   -1.0523    0.2912 H   0  0  0  0  0  0  0  0  0  0  0  0
   -9.3802    1.7838   -0.7285 H   0  0  0  0  0  0  0  0  0  0  0  0
  -10.5151    0.4485   -0.6399 H   0  0  0  0  0  0  0  0  0  0  0  0
   -9.1788    1.8079    1.7875 H   0  0  0  0  0  0  0  0  0  0  0  0
  -10.8719    1.9523    1.2928 H   0  0  0  0  0  0  0  0  0  0  0  0
  -10.2521    0.4000    1.8878 H   0  0  0  0  0  0  0  0  0  0  0  0
  1  2  1  0  0  0  0
  1 26  1  0  0  0  0
  2 28  1  0  0  0  0
  2  3  1  0  0  0  0
  3  4  1  0  0  0  0
  4 32  1  0  0  0  0
  4 31  1  0  0  0  0
  4  5  1  0  0  0  0
  5  6  1  0  0  0  0
  5 34  1  0  0  0  0
  6 35  1  0  0  0  0
  7  8  1  0  0  0  0
  7 38  1  0  0  0  0
  7  6  1  0  0  0  0
  8 39  1  0  0  0  0
  9 41  1  0  0  0  0
  9  8  1  0  0  0  0
  9 42  1  0  0  0  0
 10  9  1  0  0  0  0
 11 46  1  0  0  0  0
 11 10  1  0  0  0  0
 11 12  1  0  0  0  0
 12 48  1  0  0  0  0
 13 50  1  0  0  0  0
 13 12  1  0  0  0  0
 13 49  1  0  0  0  0
 14 13  1  0  0  0  0
 15 54  1  0  0  0  0
 15 14  1  0  0  0  0
 15 16  1  0  0  0  0
 16 56  1  0  0  0  0
 17 57  1  0  0  0  0
 17 18  1  0  0  0  0
 17 16  1  0  0  0  0
 18 19  1  0  0  0  0
 19 62  1  0  0  0  0
 19 61  1  0  0  0  0
 19 20  1  0  0  0  0
 20 64  1  0  0  0  0
 21 22  1  0  0  0  0
 21 66  1  0  0  0  0
 21 20  1  0  0  0  0
 22 23  1  0  0  0  0
 23 70  1  0  0  0  0
 23 69  1  0  0  0  0
 23 71  1  0  0  0  0
 24  1  1  0  0  0  0
 25  1  1  0  0  0  0
 27  2  1  0  0  0  0
 29  3  1  0  0  0  0
 30  3  1  0  0  0  0
 33  5  1  0  0  0  0
 36  6  1  0  0  0  0
 37  7  1  0  0  0  0
 40  8  1  0  0  0  0
 43 10  1  0  0  0  0
 44 10  1  0  0  0  0
 45 11  1  0  0  0  0
 47 12  1  0  0  0  0
 51 14  1  0  0  0  0
 52 14  1  0  0  0  0
 53 15  1  0  0  0  0
 55 16  1  0  0  0  0
 58 17  1  0  0  0  0
 59 18  1  0  0  0  0
 60 18  1  0  0  0  0
 63 20  1  0  0  0  0
 65 21  1  0  0  0  0
 67 22  1  0  0  0  0
 68 22  1  0  0  0  0
M  END
