575
 OpenBabel08181812023D

  8  7  0  0  0  0  0  0  0  0999 V2000
    0.5254   -0.4093    0.2125 C   0  0  0  0  0  0  0  0  0  0  0  0
    0.7878   -1.1766    1.1016 O   0  0  0  0  0  0  0  0  0  0  0  0
   -0.8330    0.3478    0.0844 C   0  0  0  0  0  0  0  0  0  0  0  0
   -1.5951   -0.1145   -1.4681 Cl  0  0  0  0  0  0  0  0  0  0  0  0
   -1.8927   -0.0896    1.4269 Cl  0  0  0  0  0  0  0  0  0  0  0  0
   -0.5084    2.1079    0.1139 Cl  0  0  0  0  0  0  0  0  0  0  0  0
    1.3455   -0.0801   -0.8045 O   0  0  0  0  0  0  0  0  0  0  0  0
    2.1704   -0.5854   -0.6667 H   0  0  0  0  0  0  0  0  0  0  0  0
  1  2  2  0  0  0  0
  3  6  1  0  0  0  0
  3  1  1  0  0  0  0
  3  5  1  0  0  0  0
  4  3  1  0  0  0  0
  7  8  1  0  0  0  0
  7  1  1  0  0  0  0
M  END
