111
 OpenBabel08181812023D

 13 12  0  0  0  0  0  0  0  0999 V2000
   -0.3104    1.3506    0.0628 C   0  0  0  0  0  0  0  0  0  0  0  0
   -0.0719   -0.0232    0.4746 N   0  0  0  0  0  0  0  0  0  0  0  0
    1.3032   -0.4210    0.2202 C   0  0  0  0  0  0  0  0  0  0  0  0
   -1.0122   -0.9358   -0.1555 C   0  0  0  0  0  0  0  0  0  0  0  0
   -1.3391    1.6420    0.3144 H   0  0  0  0  0  0  0  0  0  0  0  0
   -0.1670    1.5054   -1.0313 H   0  0  0  0  0  0  0  0  0  0  0  0
    0.3767    2.0235    0.5933 H   0  0  0  0  0  0  0  0  0  0  0  0
    1.4703   -1.4421    0.5889 H   0  0  0  0  0  0  0  0  0  0  0  0
    1.5670   -0.3986   -0.8620 H   0  0  0  0  0  0  0  0  0  0  0  0
    1.9903    0.2522    0.7506 H   0  0  0  0  0  0  0  0  0  0  0  0
   -2.0407   -0.6439    0.0963 H   0  0  0  0  0  0  0  0  0  0  0  0
   -0.8449   -1.9568    0.2134 H   0  0  0  0  0  0  0  0  0  0  0  0
   -0.9214   -0.9521   -1.2658 H   0  0  0  0  0  0  0  0  0  0  0  0
  1  5  1  0  0  0  0
  1  2  1  0  0  0  0
  1  7  1  0  0  0  0
  3  2  1  0  0  0  0
  3  8  1  0  0  0  0
  3 10  1  0  0  0  0
  4 11  1  0  0  0  0
  4 12  1  0  0  0  0
  4  2  1  0  0  0  0
  6  1  1  0  0  0  0
  9  3  1  0  0  0  0
 13  4  1  0  0  0  0
M  END
