166
 OpenBabel08181812023D

 36 35  0  0  0  0  0  0  0  0999 V2000
   -5.2237   -0.9046   -0.6925 C   0  0  0  0  0  0  0  0  0  0  0  0
   -4.9323    0.0127    0.4969 C   0  0  0  0  0  0  0  0  0  0  0  0
   -3.4437    0.3186    0.7093 C   0  0  0  0  0  0  0  0  0  0  0  0
   -2.8039    1.1473   -0.4100 C   0  0  0  0  0  0  0  0  0  0  0  0
   -1.3584    1.5796   -0.1328 C   0  0  0  0  0  0  0  0  0  0  0  0
   -0.3436    0.4339   -0.0815 C   0  0  0  0  0  0  0  0  0  0  0  0
    1.0954    0.9109    0.1257 C   0  0  0  0  0  0  0  0  0  0  0  0
    2.1174   -0.2260    0.1910 C   0  0  0  0  0  0  0  0  0  0  0  0
    3.5544    0.2656    0.3841 C   0  0  0  0  0  0  0  0  0  0  0  0
    4.5923   -0.8531    0.5341 C   0  0  0  0  0  0  0  0  0  0  0  0
    4.8148   -1.7000   -0.7186 C   0  0  0  0  0  0  0  0  0  0  0  0
    5.2732   -0.9443   -1.8463 O   0  0  0  0  0  0  0  0  0  0  0  0
   -4.6918   -1.8623   -0.5913 H   0  0  0  0  0  0  0  0  0  0  0  0
   -6.2965   -1.1275   -0.7697 H   0  0  0  0  0  0  0  0  0  0  0  0
   -4.9137   -0.4533   -1.6446 H   0  0  0  0  0  0  0  0  0  0  0  0
   -5.3324   -0.4501    1.4126 H   0  0  0  0  0  0  0  0  0  0  0  0
   -5.4804    0.9616    0.3727 H   0  0  0  0  0  0  0  0  0  0  0  0
   -3.3242    0.8640    1.6606 H   0  0  0  0  0  0  0  0  0  0  0  0
   -2.8994   -0.6321    0.8329 H   0  0  0  0  0  0  0  0  0  0  0  0
   -2.8325    0.5860   -1.3581 H   0  0  0  0  0  0  0  0  0  0  0  0
   -3.4190    2.0485   -0.5719 H   0  0  0  0  0  0  0  0  0  0  0  0
   -1.0444    2.2923   -0.9132 H   0  0  0  0  0  0  0  0  0  0  0  0
   -1.3231    2.1384    0.8186 H   0  0  0  0  0  0  0  0  0  0  0  0
   -0.6082   -0.2683    0.7256 H   0  0  0  0  0  0  0  0  0  0  0  0
   -0.4038   -0.1445   -1.0198 H   0  0  0  0  0  0  0  0  0  0  0  0
    1.1519    1.5042    1.0547 H   0  0  0  0  0  0  0  0  0  0  0  0
    1.3712    1.6007   -0.6901 H   0  0  0  0  0  0  0  0  0  0  0  0
    1.8504   -0.9080    1.0172 H   0  0  0  0  0  0  0  0  0  0  0  0
    2.0455   -0.8226   -0.7328 H   0  0  0  0  0  0  0  0  0  0  0  0
    3.8372    0.9070   -0.4655 H   0  0  0  0  0  0  0  0  0  0  0  0
    3.5944    0.9060    1.2800 H   0  0  0  0  0  0  0  0  0  0  0  0
    5.5608   -0.4177    0.8360 H   0  0  0  0  0  0  0  0  0  0  0  0
    4.2984   -1.5302    1.3546 H   0  0  0  0  0  0  0  0  0  0  0  0
    3.8747   -2.1617   -1.0504 H   0  0  0  0  0  0  0  0  0  0  0  0
    5.5165   -2.5224   -0.4901 H   0  0  0  0  0  0  0  0  0  0  0  0
    6.1264   -0.5485   -1.6094 H   0  0  0  0  0  0  0  0  0  0  0  0
  1 13  1  0  0  0  0
  1  2  1  0  0  0  0
  2  3  1  0  0  0  0
  2 16  1  0  0  0  0
  3 19  1  0  0  0  0
  3 18  1  0  0  0  0
  4  5  1  0  0  0  0
  4  3  1  0  0  0  0
  5  6  1  0  0  0  0
  5 23  1  0  0  0  0
  6  7  1  0  0  0  0
  6 24  1  0  0  0  0
  7  8  1  0  0  0  0
  7 26  1  0  0  0  0
  8  9  1  0  0  0  0
  8 28  1  0  0  0  0
  9 10  1  0  0  0  0
  9 31  1  0  0  0  0
 10 32  1  0  0  0  0
 10 33  1  0  0  0  0
 11 35  1  0  0  0  0
 11 10  1  0  0  0  0
 12 36  1  0  0  0  0
 12 11  1  0  0  0  0
 14  1  1  0  0  0  0
 15  1  1  0  0  0  0
 17  2  1  0  0  0  0
 20  4  1  0  0  0  0
 21  4  1  0  0  0  0
 22  5  1  0  0  0  0
 25  6  1  0  0  0  0
 27  7  1  0  0  0  0
 29  8  1  0  0  0  0
 30  9  1  0  0  0  0
 34 11  1  0  0  0  0
M  END
