642
 OpenBabel08181812023D

 23 22  0  0  1  0  0  0  0  0999 V2000
    2.4457    0.9514    0.4549 C   0  0  0  0  0  0  0  0  0  0  0  0
    0.9665    0.6171    0.6620 C   0  0  0  0  0  0  0  0  0  0  0  0
    0.3290   -0.1735   -0.4955 C   0  0  1  0  0  0  0  0  0  0  0  0
    0.9210   -1.5838   -0.6121 C   0  0  0  0  0  0  0  0  0  0  0  0
   -1.2232   -0.2151   -0.4324 C   0  0  0  0  0  0  0  0  0  0  0  0
   -1.7746   -0.7960    0.8761 C   0  0  0  0  0  0  0  0  0  0  0  0
   -1.8513    1.1538   -0.7194 C   0  0  0  0  0  0  0  0  0  0  0  0
    3.0681    0.0490    0.3889 H   0  0  0  0  0  0  0  0  0  0  0  0
    2.8342    1.5549    1.2865 H   0  0  0  0  0  0  0  0  0  0  0  0
    2.5956    1.5265   -0.4707 H   0  0  0  0  0  0  0  0  0  0  0  0
    0.4138    1.5579    0.8076 H   0  0  0  0  0  0  0  0  0  0  0  0
    0.8506    0.0473    1.5982 H   0  0  0  0  0  0  0  0  0  0  0  0
    0.5780    0.3638   -1.4296 H   0  0  0  0  0  0  0  0  0  0  0  0
    2.0015   -1.5563   -0.8046 H   0  0  0  0  0  0  0  0  0  0  0  0
    0.7671   -2.1636    0.3099 H   0  0  0  0  0  0  0  0  0  0  0  0
    0.4550   -2.1395   -1.4385 H   0  0  0  0  0  0  0  0  0  0  0  0
   -1.5368   -0.8905   -1.2484 H   0  0  0  0  0  0  0  0  0  0  0  0
   -1.3556   -1.7861    1.1006 H   0  0  0  0  0  0  0  0  0  0  0  0
   -2.8666   -0.9068    0.8170 H   0  0  0  0  0  0  0  0  0  0  0  0
   -1.5598   -0.1374    1.7299 H   0  0  0  0  0  0  0  0  0  0  0  0
   -1.6241    1.8813    0.0731 H   0  0  0  0  0  0  0  0  0  0  0  0
   -2.9459    1.0761   -0.7829 H   0  0  0  0  0  0  0  0  0  0  0  0
   -1.4885    1.5694   -1.6705 H   0  0  0  0  0  0  0  0  0  0  0  0
  1  2  1  0  0  0  0
  1  9  1  0  0  0  0
  2 11  1  0  0  0  0
  2 12  1  0  0  0  0
  3 13  1  6  0  0  0
  3  5  1  0  0  0  0
  3  2  1  0  0  0  0
  4  3  1  0  0  0  0
  4 15  1  0  0  0  0
  5  6  1  0  0  0  0
  6 18  1  0  0  0  0
  6 20  1  0  0  0  0
  7  5  1  0  0  0  0
  7 21  1  0  0  0  0
  8  1  1  0  0  0  0
 10  1  1  0  0  0  0
 14  4  1  0  0  0  0
 16  4  1  0  0  0  0
 17  5  1  0  0  0  0
 19  6  1  0  0  0  0
 22  7  1  0  0  0  0
 23  7  1  0  0  0  0
M  END
