207
 OpenBabel08181812023D

 15 14  0  0  0  0  0  0  0  0999 V2000
   -1.6026   -0.7187    0.3836 C   0  0  0  0  0  0  0  0  0  0  0  0
   -0.6524   -0.5224   -0.7984 C   0  0  0  0  0  0  0  0  0  0  0  0
    0.1648    0.7722   -0.7408 C   0  0  0  0  0  0  0  0  0  0  0  0
    1.1686    0.8423    0.4300 C   0  0  0  0  0  0  0  0  0  0  0  0
    2.1737   -0.2140    0.3788 C   0  0  0  0  0  0  0  0  0  0  0  0
    2.9657   -1.0628    0.3189 N   0  0  0  0  0  0  0  0  0  0  0  0
   -2.1916   -1.6373    0.2656 H   0  0  0  0  0  0  0  0  0  0  0  0
   -2.3087    0.1202    0.4712 H   0  0  0  0  0  0  0  0  0  0  0  0
   -1.0647   -0.8041    1.3381 H   0  0  0  0  0  0  0  0  0  0  0  0
   -1.2323   -0.5182   -1.7335 H   0  0  0  0  0  0  0  0  0  0  0  0
    0.0352   -1.3795   -0.8718 H   0  0  0  0  0  0  0  0  0  0  0  0
   -0.5099    1.6372   -0.6465 H   0  0  0  0  0  0  0  0  0  0  0  0
    0.7178    0.9024   -1.6818 H   0  0  0  0  0  0  0  0  0  0  0  0
    0.6469    0.7715    1.3963 H   0  0  0  0  0  0  0  0  0  0  0  0
    1.6896    1.8111    0.4260 H   0  0  0  0  0  0  0  0  0  0  0  0
  1  8  1  0  0  0  0
  1  9  1  0  0  0  0
  2  3  1  0  0  0  0
  2  1  1  0  0  0  0
  3 12  1  0  0  0  0
  3  4  1  0  0  0  0
  4 14  1  0  0  0  0
  5  4  1  0  0  0  0
  6  5  3  0  0  0  0
  7  1  1  0  0  0  0
 10  2  1  0  0  0  0
 11  2  1  0  0  0  0
 13  3  1  0  0  0  0
 15  4  1  0  0  0  0
M  END
