339
 OpenBabel08181812023D

  8  7  0  0  0  0  0  0  0  0999 V2000
   -1.4242   -0.3045    0.3020 C   0  0  0  0  0  0  0  0  0  0  0  0
   -0.4136    0.5257   -0.0075 C   0  0  0  0  0  0  0  0  0  0  0  0
    0.9339    0.1242   -0.1864 C   0  0  0  0  0  0  0  0  0  0  0  0
    2.0977   -0.1818   -0.3471 C   0  0  0  0  0  0  0  0  0  0  0  0
   -1.2622   -1.3729    0.4383 H   0  0  0  0  0  0  0  0  0  0  0  0
   -2.4374    0.0748    0.4245 H   0  0  0  0  0  0  0  0  0  0  0  0
   -0.6151    1.5933   -0.1366 H   0  0  0  0  0  0  0  0  0  0  0  0
    3.1209   -0.4590   -0.4873 H   0  0  0  0  0  0  0  0  0  0  0  0
  1  6  1  0  0  0  0
  1  5  1  0  0  0  0
  2  1  2  0  0  0  0
  3  2  1  0  0  0  0
  4  3  3  0  0  0  0
  7  2  1  0  0  0  0
  8  4  1  0  0  0  0
M  END
