649
 OpenBabel08181812023D

 21 20  0  0  0  0  0  0  0  0999 V2000
    3.1046   -1.0267   -0.3034 C   0  0  0  0  0  0  0  0  0  0  0  0
    2.0940    0.1142   -0.4125 C   0  0  0  0  0  0  0  0  0  0  0  0
    0.9202   -0.0309    0.5702 C   0  0  0  0  0  0  0  0  0  0  0  0
   -0.0452    1.1149    0.4998 C   0  0  0  0  0  0  0  0  0  0  0  0
   -1.3654    1.0716    0.2676 C   0  0  0  0  0  0  0  0  0  0  0  0
   -2.2239   -0.1350    0.0234 C   0  0  0  0  0  0  0  0  0  0  0  0
   -2.9890   -0.0540   -1.3056 C   0  0  0  0  0  0  0  0  0  0  0  0
    2.6356   -1.9959   -0.5277 H   0  0  0  0  0  0  0  0  0  0  0  0
    3.9414   -0.8928   -1.0024 H   0  0  0  0  0  0  0  0  0  0  0  0
    3.5241   -1.0911    0.7113 H   0  0  0  0  0  0  0  0  0  0  0  0
    2.5978    1.0775   -0.2310 H   0  0  0  0  0  0  0  0  0  0  0  0
    1.6978    0.1679   -1.4383 H   0  0  0  0  0  0  0  0  0  0  0  0
    1.3333   -0.0913    1.5936 H   0  0  0  0  0  0  0  0  0  0  0  0
    0.4111   -0.9894    0.3913 H   0  0  0  0  0  0  0  0  0  0  0  0
    0.4044    2.1026    0.6511 H   0  0  0  0  0  0  0  0  0  0  0  0
   -1.9026    2.0264    0.2447 H   0  0  0  0  0  0  0  0  0  0  0  0
   -1.6246   -1.0556    0.0520 H   0  0  0  0  0  0  0  0  0  0  0  0
   -2.9557   -0.2216    0.8453 H   0  0  0  0  0  0  0  0  0  0  0  0
   -2.2967   -0.0193   -2.1576 H   0  0  0  0  0  0  0  0  0  0  0  0
   -3.6493   -0.9221   -1.4372 H   0  0  0  0  0  0  0  0  0  0  0  0
   -3.6121    0.8506   -1.3483 H   0  0  0  0  0  0  0  0  0  0  0  0
  1 10  1  0  0  0  0
  2  1  1  0  0  0  0
  2 11  1  0  0  0  0
  2  3  1  0  0  0  0
  3 13  1  0  0  0  0
  4  3  1  0  0  0  0
  4 15  1  0  0  0  0
  5  4  2  0  0  0  0
  6 17  1  0  0  0  0
  6  5  1  0  0  0  0
  6 18  1  0  0  0  0
  7  6  1  0  0  0  0
  8  1  1  0  0  0  0
  9  1  1  0  0  0  0
 12  2  1  0  0  0  0
 14  3  1  0  0  0  0
 16  5  1  0  0  0  0
 19  7  1  0  0  0  0
 20  7  1  0  0  0  0
 21  7  1  0  0  0  0
M  END
