17
0011dim.xyz
C   0.0000770000   -0.0000010000   0.0000000000
C   -1.5291790000   -0.0000330000   0.0000000000
C   0.5097030000   1.4421240000   0.0000000000
C   0.5097030000   -0.7210310000   1.2486190000
C   0.5097030000   -0.7210310000   -1.2486190000
H   -1.9178830000   -1.0199180000   0.0000000000
H   -1.9179130000   0.5098680000   0.8832770000
H   -1.9179130000   0.5098680000   -0.8832770000
H   1.6008300000   1.4695020000   0.0000000000
H   0.1587200000   1.9790850000   -0.8831760000
H   0.1587200000   1.9790850000   0.8831760000
H   0.1601040000   -0.2236950000   2.1551360000
H   0.1568070000   -1.7536420000   1.2726660000
H   1.6007920000   -0.7364930000   1.2712600000
H   0.1601040000   -0.2236950000   -2.1551360000
H   1.6007920000   -0.7364930000   -1.2712600000
H   0.1568070000   -1.7536420000   -1.2726660000
