6
0021eth.xyz
C   0.0000000000   0.0000000000   0.6608720000
C   0.0000000000   0.0000000000   -0.6608720000
H   0.0000000000   0.9213930000   1.2283100000
H   0.0000000000   -0.9213930000   1.2283100000
H   0.0000000000   -0.9213930000   -1.2283100000
H   0.0000000000   0.9213930000   -1.2283100000
