20
0098met.xyz
C   1.3301330000   0.2299300000   0.0000110000
C   0.0990620000   -0.6608270000   -0.0000270000
C   -1.1888790000   0.1199810000   -0.0000130000
O   -1.2798700000   1.3164860000   -0.0000310000
H   0.0853860000   -1.3205710000   -0.8709870000
H   0.0853730000   -1.3206350000   0.8708830000
H   1.2997200000   0.8872390000   0.8714280000
H   1.2997200000   0.8873150000   -0.8713480000
C   2.6250860000   -0.5736860000   -0.0000220000
O   -2.2551470000   -0.6951240000   0.0000190000
C   -3.5218800000   -0.0419770000   0.0000240000
H   -4.2655390000   -0.8317610000   0.0000520000
H   -3.6262770000   0.5824690000   -0.8851090000
H   -3.6262500000   0.5825070000   0.8851330000
C   3.8595530000   0.3197400000   0.0000300000
H   2.6444530000   -1.2293220000   -0.8747270000
H   2.6444440000   -1.2294110000   0.8746170000
H   4.7783610000   -0.2652480000   0.0000000000
H   3.8711480000   0.9638240000   -0.8800580000
H   3.8711440000   0.9637260000   0.8801900000
