10
0104dim.xyz
N   0.0264090000   0.5851670000   0.0000000000
H   -0.7707960000   1.2067050000   0.0000000000
C   0.0264090000   -0.2230570000   1.2056160000
C   0.0264090000   -0.2230570000   -1.2056160000
H   -0.8029470000   -0.9434300000   1.2512450000
H   -0.0209950000   0.4185530000   2.0839280000
H   0.9584530000   -0.7882180000   1.2547740000
H   -0.8029470000   -0.9434300000   -1.2512450000
H   -0.0209950000   0.4185530000   -2.0839280000
H   0.9584530000   -0.7882180000   -1.2547740000
