14
0119met.xyz
C   -0.8720460000   0.0070830000   0.0000000000
C   -0.1572410000   1.2024070000   0.0000000000
C   1.2275150000   1.1630290000   0.0000000000
C   1.8602300000   -0.0688500000   0.0000000000
C   1.0667450000   -1.2077250000   0.0000000000
N   -0.2611130000   -1.1800770000   0.0000000000
H   1.8021360000   2.0797300000   0.0000000000
H   -0.6854310000   2.1459770000   0.0000000000
H   2.9373990000   -0.1523230000   0.0000000000
H   1.5220480000   -2.1916330000   0.0000000000
C   -2.3730240000   -0.0147450000   0.0000000000
H   -2.7359070000   -0.5492540000   -0.8772680000
H   -2.7359070000   -0.5492620000   0.8772630000
H   -2.7896220000   0.9901090000   0.0000040000
