12
0128butb.xyz
C   -1.2843820000   0.0491780000   0.0484660000
N   -2.1377080000   -0.6911580000   -0.1424820000
C   -0.1705530000   0.9714190000   0.2694950000
C   1.1195600000   0.4738980000   -0.3947460000
H   -0.4594520000   1.9486380000   -0.1172830000
H   -0.0277640000   1.0748860000   1.3466690000
C   1.5854500000   -0.8620880000   0.1675990000
H   0.9543590000   0.3935750000   -1.4696270000
H   1.8848330000   1.2359300000   -0.2446100000
H   2.5059760000   -1.1871060000   -0.3139570000
H   1.7737590000   -0.7879970000   1.2394890000
H   0.8317930000   -1.6342640000   0.0118120000
