13
0131nit.xyz
N   1.2135210000   -0.0025130000   0.0000010000
O   1.3391510000   1.1984430000   0.0000050000
O   2.1191750000   -0.8035130000   -0.0000090000
C   -0.1777440000   -0.5775690000   0.0000110000
C   -1.2650770000   0.4711350000   -0.0000090000
H   -0.2081860000   -1.2192320000   0.8793460000
H   -0.2081850000   -1.2192670000   -0.8792980000
H   -1.1508870000   1.1109920000   0.8739780000
H   -1.1508830000   1.1109620000   -0.8740160000
C   -2.6365180000   -0.1974630000   -0.0000010000
H   -2.7696400000   -0.8255790000   -0.8813140000
H   -2.7696440000   -0.8255510000   0.8813320000
H   -3.4277970000   0.5492000000   -0.0000140000
