12
0138pro.xyz
C   2.4025140000   0.0754280000   0.0089830000
H   3.1610580000   -0.6993800000   -0.0932450000
H   2.5623380000   0.8074560000   -0.7837230000
H   2.5633470000   0.5786590000   0.9632560000
C   0.9971680000   -0.5122450000   -0.0696670000
H   0.8606510000   -1.2601800000   0.7146400000
C   -0.0669990000   0.5647240000   0.0782510000
H   0.0307960000   1.3047770000   -0.7170280000
H   0.0443560000   1.0934040000   1.0243380000
S   -1.7713000000   -0.0425580000   -0.0725610000
H   -1.7298340000   -0.8835310000   0.9673140000
H   0.8519930000   -1.0277220000   -1.0199770000
