9
0140dim.xyz
S   0.0000000000   0.0000000000   0.6612740000
C   0.0000000000   1.3664140000   -0.5127230000
H   0.8906990000   1.3398400000   -1.1381670000
H   -0.8906990000   1.3398400000   -1.1381670000
H   0.0000000000   2.2890420000   0.0624770000
C   0.0000000000   -1.3664140000   -0.5127230000
H   0.8906990000   -1.3398400000   -1.1381670000
H   0.0000000000   -2.2890420000   0.0624770000
H   -0.8906990000   -1.3398400000   -1.1381670000
