16
0144thi.xyz
C   0.0000000000   0.2600030000   0.0000000000
C   -0.2118120000   -1.1153450000   0.0000000000
C   1.3094070000   0.7473020000   0.0000000000
C   0.8719070000   -1.9862600000   0.0000000000
C   2.3808870000   -0.1269930000   0.0000000000
C   2.1691470000   -1.5015890000   0.0000000000
H   -1.2125950000   -1.5204450000   0.0000000000
H   1.4805710000   1.8162360000   0.0000000000
H   0.6914940000   -3.0528930000   0.0000000000
H   3.3884020000   0.2665140000   0.0000000000
H   3.0077860000   -2.1834070000   0.0000000000
S   -1.2854880000   1.4641290000   0.0000000000
C   -2.7732560000   0.4579950000   0.0000000000
H   -3.6043260000   1.1583600000   0.0000000000
H   -2.8306000000   -0.1605590000   0.8930470000
H   -2.8306000000   -0.1605590000   -0.8930470000
