12
0157flu.xyz
C   0.0000000000   0.0000000000   0.9249000000
C   0.0000000000   1.2103480000   0.2599030000
C   0.0000000000   -1.2103480000   0.2599030000
C   0.0000000000   1.2014690000   -1.1278110000
C   0.0000000000   -1.2014690000   -1.1278110000
C   0.0000000000   0.0000000000   -1.8235270000
H   0.0000000000   2.1294300000   0.8284640000
H   0.0000000000   -2.1294300000   0.8284640000
H   0.0000000000   2.1394520000   -1.6656110000
H   0.0000000000   -2.1394520000   -1.6656110000
H   0.0000000000   0.0000000000   -2.9041540000
F   0.0000000000   0.0000000000   2.2650120000
