26
0159flu.xyz
C   1.2315280000   0.4736180000   0.0000380000
C   -0.0320430000   -0.3783280000   0.0000210000
C   2.5117060000   -0.3530440000   0.0000150000
C   -1.3118470000   0.4498200000   0.0000260000
H   1.2253040000   1.1305790000   0.8755770000
H   1.2252990000   1.1306170000   -0.8754730000
H   -0.0271610000   -1.0348700000   0.8754250000
H   -0.0271530000   -1.0348430000   -0.8754020000
C   3.7776750000   0.4962020000   0.0000070000
C   -2.5723570000   -0.4084480000   -0.0000110000
H   2.5184080000   -1.0104890000   -0.8752870000
H   2.5184300000   -1.0105070000   0.8753040000
H   -1.3154470000   1.1061840000   -0.8757520000
H   -1.3154680000   1.1061430000   0.8758350000
C   5.0474360000   -0.3467600000   -0.0000320000
C   -3.8211440000   0.4410870000   -0.0000100000
H   3.7696150000   1.1518000000   0.8748160000
H   3.7695820000   1.1518290000   -0.8747800000
H   -2.5853310000   -1.0569640000   0.8788960000
H   -2.5853050000   -1.0569250000   -0.8789480000
H   5.9432120000   0.2733290000   -0.0000470000
F   -4.9481180000   -0.3623670000   -0.0000470000
H   5.0845700000   -0.9899890000   -0.8804510000
H   5.0846110000   -0.9900080000   0.8803720000
H   -3.8678990000   1.0752920000   -0.8879410000
H   -3.8679260000   1.0752510000   0.8879480000
