8
0166tri.xyz
H   -0.2659620000   -0.1349240000   -1.4389460000
C   -0.4135320000   -0.0831430000   -0.3661900000
C   0.6535660000   -0.8494570000   0.3857050000
Cl   2.2770720000   -0.3045230000   -0.0884340000
Cl   -0.4253210000   1.6277490000   0.0824020000
Cl   -1.9864660000   -0.8327880000   -0.0102820000
H   0.5395020000   -0.7015660000   1.4558070000
H   0.5764250000   -1.9053450000   0.1433950000
