6
0169chl.xyz
C   0.0000000000   0.7585500000   0.0000000000
C   1.2890570000   1.0292210000   0.0000000000
H   1.6171890000   2.0589750000   0.0000000000
H   -0.7766890000   1.5079960000   0.0000000000
Cl   -0.6241790000   -0.8554390000   0.0000000000
H   2.0361970000   0.2488630000   0.0000000000
