6
0172Edi.xyz
C   -0.3642710000   0.5494310000   0.0000000000
C   0.3642710000   -0.5494310000   0.0000000000
Cl   -0.3642710000   -2.1106670000   0.0000000000
Cl   0.3642710000   2.1106670000   0.0000000000
H   -1.4430970000   0.5510610000   0.0000000000
H   1.4430970000   -0.5510610000   0.0000000000
