8
0205chl.xyz
C   0.8679370000   0.4864860000   0.0000000000
C   -0.6425690000   0.4317380000   0.0000000000
Cl   1.5618680000   -1.1371930000   0.0000000000
F   -1.1219640000   1.6814580000   0.0000000000
H   1.1945370000   1.0129710000   0.8916700000
H   1.1945370000   1.0129710000   -0.8916700000
F   -1.1219640000   -0.1853400000   1.0762030000
F   -1.1219640000   -0.1853400000   -1.0762030000
