26
0221tri.xyz
P   -0.1143010000   -0.0268730000   0.6540080000
O   0.5569550000   -1.0474180000   -0.3585810000
O   0.7555420000   1.2786850000   0.5888600000
O   -1.4128120000   0.3860180000   -0.1338220000
C   1.0072580000   1.9485640000   -0.6552200000
C   -2.5201920000   -0.5295470000   -0.1800500000
C   1.6682630000   -1.8325800000   0.1036680000
C   -3.6786300000   0.1726470000   -0.8452780000
C   2.0044740000   3.0518580000   -0.3963180000
C   2.0496200000   -2.7943840000   -0.9951430000
H   -4.5379280000   -0.4950710000   -0.8935580000
H   -3.4140120000   0.4728080000   -1.8579110000
H   -3.9587510000   1.0596720000   -0.2796600000
H   2.2165900000   3.5849530000   -1.3223370000
H   2.9355560000   2.6420910000   -0.0082490000
H   1.6078570000   3.7585280000   0.3304930000
H   2.8954720000   -3.4038950000   -0.6794960000
H   2.3284760000   -2.2539530000   -1.8985070000
H   1.2149150000   -3.4531990000   -1.2292100000
H   -2.7628480000   -0.8293070000   0.8399060000
H   -2.2140100000   -1.4133580000   -0.7427150000
H   0.0633870000   2.3426570000   -1.0328060000
H   1.3915670000   1.2229950000   -1.3748390000
H   1.3714690000   -2.3512740000   1.0151790000
H   2.4955390000   -1.1609330000   0.3462200000
O   -0.2876260000   -0.5446570000   2.0019680000
