28
0437pho.xyz
C   -4.1309160000   -1.8578830000   0.1314490000
C   -0.1137540000   -0.4021860000   -0.5082010000
C   0.6694560000   -1.5246630000   -0.3441870000
C   0.4457710000   0.8654510000   -0.4659220000
C   1.8063170000   1.0287580000   -0.2533480000
C   2.4056060000   2.4040780000   -0.1971160000
C   2.6114920000   -0.1117120000   -0.0895470000
C   4.9796790000   -1.5010080000   0.3482550000
C   2.0337250000   -1.3755520000   -0.1385650000
P   -2.6409130000   0.2654400000   -0.0922940000
O   -2.8193980000   1.5176740000   -1.0461450000
O   -3.8734290000   -0.6190390000   -0.5324700000
O   -1.4630300000   -0.5925990000   -0.7587440000
S   -2.4293860000   0.7011440000   1.7424940000
S   4.3336690000   0.1655210000   0.1727490000
H   -3.0215980000   1.2803120000   -1.9587440000
H   -4.2685750000   -1.6855120000   1.1975670000
H   -5.0397150000   -2.2582320000   -0.3056950000
H   -3.3037170000   -2.5478220000   -0.0316430000
H   0.2136760000   -2.5039230000   -0.3786470000
H   2.6352880000   -2.2628710000   -0.0133080000
H   6.0469190000   -1.3845510000   0.5188700000
H   4.5376630000   -2.0084010000   1.2029810000
H   4.8277030000   -2.0832930000   -0.5579830000
H   1.6436500000   3.1660530000   -0.3414350000
H   2.8889340000   2.5761210000   0.7664810000
H   3.1719750000   2.5271130000   -0.9649040000
H   -0.1844230000   1.7367830000   -0.5910630000
