38
0513dod.xyz
C   6.9968900000   -0.3131870000   0.0000400000
C   5.7207610000   0.5202710000   0.0000300000
C   4.4610470000   -0.3382000000   0.0000290000
C   3.1739870000   0.4777250000   0.0000200000
C   1.9165390000   -0.3835480000   0.0000160000
C   0.6284290000   0.4310510000   0.0000060000
C   -0.6284290000   -0.4310510000   0.0000010000
C   -1.9165390000   0.3835480000   -0.0000100000
C   -3.1739870000   -0.4777250000   -0.0000180000
C   -4.4610470000   0.3382000000   -0.0000290000
C   -5.7207610000   -0.5202710000   -0.0000370000
C   -6.9968900000   0.3131870000   -0.0000490000
H   -7.8883640000   -0.3131430000   -0.0000540000
H   -7.0385820000   0.9563100000   -0.8804050000
H   -7.0385950000   0.9563140000   0.8803040000
H   7.8883640000   0.3131420000   0.0000400000
H   7.0385910000   -0.9563170000   -0.8803110000
H   7.0385850000   -0.9563070000   0.8803980000
H   5.7079230000   1.1759400000   0.8747560000
H   5.7079300000   1.1759320000   -0.8747010000
H   3.1625240000   1.1349310000   -0.8753400000
H   3.1625150000   1.1349370000   0.8753750000
H   1.9284140000   -1.0408150000   0.8753000000
H   1.9284240000   -1.0408220000   -0.8752620000
H   0.6163580000   1.0882850000   -0.8753050000
H   0.6163480000   1.0882890000   0.8753140000
H   -0.6163590000   -1.0882850000   0.8753120000
H   -0.6163470000   -1.0882890000   -0.8753070000
H   -1.9284130000   1.0408170000   -0.8752930000
H   -1.9284250000   1.0408200000   0.8752700000
H   -3.1625260000   -1.1349320000   0.8753410000
H   -3.1625130000   -1.1349350000   -0.8753740000
H   -4.4728600000   0.9958200000   -0.8752570000
H   -4.4728730000   0.9958240000   0.8751970000
H   -5.7079330000   -1.1759350000   0.8746930000
H   -5.7079190000   -1.1759380000   -0.8747640000
H   4.4728630000   -0.9958180000   0.8752590000
H   4.4728700000   -0.9958260000   -0.8751950000
