21
0532tri.xyz
C   1.1185040000   -0.5892120000   0.0026870000
C   0.6955780000   0.7477550000   -0.0002880000
C   -0.6640440000   1.0282900000   -0.0055660000
C   -1.6306300000   0.0249630000   -0.0071510000
C   -1.1991000000   -1.2933650000   -0.0070030000
C   0.1579710000   -1.5908300000   -0.0012290000
C   -3.0946790000   0.3721950000   0.0085010000
H   -0.9843880000   2.0651180000   -0.0107710000
C   1.7041340000   1.8629640000   -0.0012480000
C   2.5842390000   -0.9246580000   0.0054000000
H   0.4769680000   -2.6263360000   -0.0025960000
H   -1.9255630000   -2.0965980000   -0.0134430000
H   2.7377270000   -2.0018030000   0.0124530000
H   3.0860110000   -0.5161780000   -0.8740390000
H   3.0854190000   -0.5044320000   0.8795530000
H   2.3481800000   1.8155630000   0.8790010000
H   2.3567760000   1.8065160000   -0.8745810000
H   1.2122710000   2.8335350000   -0.0086020000
H   -3.7058360000   -0.4916700000   -0.2474750000
H   -3.4024850000   0.7183230000   0.9966070000
H   -3.3169150000   1.1693580000   -0.7007240000
