19
0544flu.xyz
C   2.1101440000   1.1980190000   0.0029070000
C   2.5810020000   -0.0997320000   0.0055010000
C   1.7233860000   -1.1786120000   -0.0021480000
C   0.3512280000   -0.9690650000   -0.0122300000
C   -0.1480850000   0.3327330000   -0.0140060000
C   0.7426000000   1.4063470000   -0.0068030000
N   -1.5223130000   0.6374210000   -0.0235390000
C   -2.5933920000   -0.2195740000   -0.0064740000
C   -3.9334160000   0.4826190000   0.0245740000
O   -2.4912940000   -1.4246730000   -0.0007170000
F   3.9056110000   -0.3121950000   0.0159890000
H   -1.7431390000   1.6194630000   -0.0268870000
H   -4.7111910000   -0.2548580000   -0.1417710000
H   -3.9956890000   1.2606690000   -0.7357200000
H   -4.0842450000   0.9450900000   1.0005960000
H   -0.3267770000   -1.8049380000   -0.0182950000
H   0.3604460000   2.4198500000   -0.0080820000
H   2.1290810000   -2.1803190000   -0.0003520000
H   2.8067590000   2.0238160000   0.0091900000
