18
0550phe.xyz
C   -2.5851540000   -1.0274860000   -0.0531270000
C   -3.0154900000   0.2910110000   0.0001220000
C   -2.0717430000   1.3045990000   0.0629600000
C   -0.7111890000   1.0291470000   0.0735730000
C   -0.2851860000   -0.2969190000   0.0192330000
C   -1.2328330000   -1.3196380000   -0.0432240000
N   1.0667020000   -0.6792390000   0.0420790000
C   2.1765970000   0.1328070000   -0.0272650000
N   3.3663280000   -0.5745700000   0.0020090000
O   2.1460410000   1.3360920000   -0.1406380000
H   1.2306840000   -1.6695230000   -0.0266990000
H   4.1711980000   0.0190140000   0.1151050000
H   3.4046620000   -1.4409930000   0.5117120000
H   0.0128240000   1.8249520000   0.1161880000
H   -0.9024430000   -2.3510530000   -0.0848470000
H   -2.3926910000   2.3369250000   0.1038840000
H   -4.0711660000   0.5227080000   -0.0084140000
H   -3.3026150000   -1.8352280000   -0.1040770000
