27
0560tri.xyz
C   1.4639270000   2.6070400000   0.0055410000
C   2.4162880000   1.5985720000   -0.0170520000
C   1.9819680000   0.2840080000   -0.0320980000
C   0.6357990000   -0.0534030000   -0.0221520000
C   -0.3138600000   0.9660560000   -0.0001440000
C   0.1179240000   2.2955030000   0.0142630000
N   -1.6974490000   0.7521410000   0.0023380000
C   -2.3649230000   -0.4625670000   0.0031630000
N   -3.7307860000   -0.3515950000   -0.0028210000
O   -1.7862630000   -1.5306550000   0.0082340000
C   2.9922880000   -0.8288930000   -0.0049370000
C   -4.4294420000   0.9163940000   -0.0086900000
C   -4.5301570000   -1.5625100000   0.0029610000
F   4.1633950000   -0.4554210000   -0.5331420000
F   2.5765350000   -1.9032730000   -0.6789740000
F   3.2455220000   -1.2310800000   1.2486600000
H   -2.2484610000   1.5913220000   0.0070220000
H   -5.1636100000   -1.5971710000   0.8913080000
H   -3.8646810000   -2.4182070000   0.0051350000
H   -5.1655550000   -1.6031890000   -0.8836630000
H   -5.4978240000   0.7191890000   -0.0176260000
H   -4.1984570000   1.5085110000   -0.8983530000
H   -4.2136070000   1.5092600000   0.8845140000
H   0.3248730000   -1.0843710000   -0.0387280000
H   -0.6163900000   3.0922440000   0.0298860000
H   3.4717720000   1.8271370000   -0.0299190000
H   1.7717480000   3.6434570000   0.0138910000
