13
0572ami.xyz
C   0.1965330000   -1.1911710000   -0.0043050000
C   -1.1851210000   -1.1303790000   0.0033460000
N   -1.8887520000   0.0000000000   0.0073630000
C   -1.1851210000   1.1303790000   0.0033480000
C   0.1965330000   1.1911710000   -0.0043050000
C   0.9244410000   0.0000000000   -0.0072150000
N   2.3013290000   0.0000000000   -0.0606500000
H   2.7706150000   0.8442810000   0.2185560000
H   2.7706150000   -0.8442800000   0.2185570000
H   0.7030310000   2.1473220000   -0.0112310000
H   -1.7594640000   2.0500880000   0.0065740000
H   -1.7594640000   -2.0500880000   0.0065750000
H   0.7030310000   -2.1473220000   -0.0112290000
