20
0580Nph.xyz
C   1.7978410000   1.0324840000   -0.4255180000
C   3.1034590000   0.6560110000   -0.2731390000
C   3.1034600000   -0.6560140000   0.2731290000
C   1.7978410000   -1.0324780000   0.4255320000
N   0.9975150000   0.0000000000   0.0000010000
C   -0.4152830000   0.0000000000   0.0000000000
C   -1.1114350000   -1.1708380000   -0.2812990000
C   -2.4975410000   -1.1678650000   -0.2712230000
C   -3.1967160000   0.0000000000   -0.0000010000
C   -2.4975410000   1.1678640000   0.2712210000
C   -1.1114350000   1.1708370000   0.2812980000
H   -3.0323400000   2.0815260000   0.4920150000
H   -4.2775400000   0.0000000000   -0.0000020000
H   3.9623980000   -1.2489760000   0.5357510000
H   3.9623970000   1.2489690000   -0.5357730000
H   -3.0323400000   -2.0815260000   -0.4920180000
H   -0.5649780000   2.0703610000   0.5287040000
H   -0.5649790000   -2.0703620000   -0.5287050000
H   1.3644380000   -1.9261130000   0.8385270000
H   1.3644360000   1.9261220000   -0.8385040000
