11
0591met.xyz
C   0.6729510000   -0.2859290000   -0.0002700000
S   -0.6742100000   -1.3881950000   0.0001170000
S   -2.1717590000   0.0230350000   -0.0002220000
C   -1.0669370000   1.3359100000   -0.0000220000
C   0.2608380000   1.1028870000   -0.0000440000
S   2.2070210000   -0.8612320000   0.0001360000
C   1.3001550000   2.1775970000   0.0001410000
H   0.8430350000   3.1643890000   0.0003040000
H   1.9429330000   2.0759530000   -0.8744960000
H   1.9429270000   2.0756640000   0.8747510000
H   -1.5077500000   2.3234820000   0.0001060000
