18
0596phe.xyz
C   2.2337240000   0.5264900000   0.0953620000
S   2.4809090000   -1.1822260000   -0.1748400000
S   0.4950860000   -1.7182640000   -0.2881730000
C   -0.0863630000   -0.1095350000   -0.0090220000
C   0.8417370000   0.8604510000   0.1534130000
S   3.5209020000   1.5256040000   0.2625610000
C   -1.5454780000   0.0889900000   0.0135010000
C   -2.0898750000   1.2756330000   -0.4800830000
C   -3.4593960000   1.4789490000   -0.4552000000
C   -4.3014660000   0.5009140000   0.0577920000
C   -3.7677530000   -0.6838360000   0.5447550000
C   -2.3977450000   -0.8913920000   0.5218990000
H   0.5672440000   1.8858400000   0.3552670000
H   -1.4373780000   2.0272100000   -0.9032400000
H   -3.8709660000   2.3996180000   -0.8448930000
H   -5.3705640000   0.6611250000   0.0751530000
H   -4.4181700000   -1.4471120000   0.9486290000
H   -1.9848100000   -1.8084830000   0.9218030000
