9
c082.xyz
C   1.3868730000   -0.6865990000   -0.2199970000
O   0.8139490000   0.2866530000   0.5836740000
O   -0.0284010000   1.0765260000   -0.2797300000
H   2.0286940000   -1.3097890000   0.4156250000
H   1.9952590000   -0.2342810000   -1.0164300000
H   0.6193380000   -1.3149280000   -0.6902640000
O   -2.0172170000   -0.4335350000   -0.0593130000
H   -1.2128420000   0.2386570000   -0.1996300000
H   -1.8983380000   -0.6972170000   0.8536360000
