23
i011.xyz
C   3.7674650000   -0.3260270000   0.0000000000
C   2.4919490000   0.5119090000   -0.0000010000
C   1.2684160000   -0.3846280000   0.0000010000
N   0.0000000000   0.4227580000   0.0000000000
C   -1.2684160000   -0.3846280000   0.0000010000
C   -2.4919490000   0.5119090000   -0.0000010000
C   -3.7674650000   -0.3260270000   0.0000000000
H   4.6435950000   0.3171110000   -0.0000010000
H   3.8168570000   -0.9621040000   -0.8831640000
H   3.8168570000   -0.9621020000   0.8831660000
H   2.4721160000   1.1591430000   -0.8804470000
H   2.4721170000   1.1591450000   0.8804440000
H   1.2303310000   -1.0200090000   0.8840960000
H   1.2303300000   -1.0200120000   -0.8840930000
H   0.0000000000   1.0416520000   -0.8142920000
H   0.0000000000   1.0416540000   0.8142910000
H   -1.2303310000   -1.0200090000   0.8840960000
H   -1.2303300000   -1.0200110000   -0.8840930000
H   -2.4721160000   1.1591430000   -0.8804470000
H   -2.4721170000   1.1591450000   0.8804440000
H   -4.6435950000   0.3171110000   -0.0000020000
H   -3.8168570000   -0.9621020000   0.8831650000
H   -3.8168560000   -0.9621040000   -0.8831640000
