14
i013.xyz
H   -1.3664700000   0.0004030000   0.0000000000
N   -0.3454380000   0.0004210000   0.0000000000
C   0.1037470000   1.4257730000   0.0000000000
C   0.1037470000   -0.7129380000   1.2340030000
C   0.1037470000   -0.7129380000   -1.2340030000
H   1.1906210000   1.4335070000   0.0000000000
H   1.1905750000   -0.7179030000   1.2398550000
H   1.1905750000   -0.7179030000   -1.2398550000
H   -0.2759230000   1.9144440000   0.8924520000
H   -0.2766770000   -1.7298030000   1.2104800000
H   -0.2747390000   -0.1848610000   -2.1042830000
H   -0.2759230000   1.9144440000   -0.8924520000
H   -0.2747390000   -0.1848610000   2.1042830000
H   -0.2766770000   -1.7298030000   -1.2104800000
