11
i054.xyz
O   0.0486450000   1.3309750000   -0.0048070000
C   -0.0050300000   0.0641130000   -0.0023280000
C   -1.3467220000   -0.5250510000   -0.0081340000
C   1.2133270000   -0.7569750000   0.0063300000
H   -2.0989450000   0.1867540000   -0.3352220000
H   -1.3603530000   -1.4425800000   -0.5948180000
H   1.3255030000   -1.1648140000   -1.0062210000
H   0.9469040000   1.7044520000   0.0327390000
H   -1.5587640000   -0.8133870000   1.0306810000
H   1.0787560000   -1.6137640000   0.6672820000
H   2.1082860000   -0.1969870000   0.2688050000
