9
i085.xyz
H   1.8188980000   -0.1270370000   0.8791640000
C   1.2813210000   -0.4899900000   -0.0000260000
C   -0.1343340000   0.1126070000   0.0000160000
O   -0.1794560000   1.3759680000   0.0000980000
H   1.2853250000   -1.5814850000   -0.0001160000
H   1.8189070000   -0.1268940000   -0.8791520000
C   -1.1895880000   -0.7758720000   -0.0000690000
H   -1.0238140000   -1.8445060000   -0.0001420000
H   -2.2080660000   -0.4082930000   -0.0000590000
