17
i099.xyz
C   -0.1741180000   0.0083430000   -0.0103770000
C   -1.6218750000   -0.0131250000   -0.0062630000
N   -2.3466670000   1.0551720000   0.2175940000
O   -2.1897600000   -1.1615020000   -0.2339710000
C   0.5150500000   -1.2043860000   0.0980390000
C   1.8969450000   -1.2005970000   0.1164680000
C   2.5888040000   -0.0000350000   0.0159950000
C   1.9056530000   1.2064110000   -0.1076860000
C   0.5260140000   1.2160300000   -0.1201790000
H   -1.9041150000   1.9256790000   0.4695350000
H   -3.3549340000   1.0521140000   0.1601390000
H   -3.1526310000   -1.1724160000   -0.1494430000
H   -0.0310530000   -2.1329970000   0.1798670000
H   2.4349850000   -2.1328650000   0.2091920000
H   3.6701130000   -0.0019500000   0.0268320000
H   2.4514030000   2.1336930000   -0.2046040000
H   0.0121370000   2.1587100000   -0.2588870000
