11
i112.xyz
C   1.3792190000   -0.7762020000   0.2260500000
S   0.0000000000   0.0877210000   -0.4879520000
C   -1.3792140000   -0.7762090000   0.2260490000
O   -0.0000060000   1.4178630000   0.3958870000
H   2.2818710000   -0.2495290000   -0.0748590000
H   1.3763190000   -1.7833790000   -0.1902800000
H   1.2655760000   -0.7896210000   1.3080710000
H   -2.2818690000   -0.2495410000   -0.0748600000
H   -1.2655710000   -0.7896280000   1.3080700000
H   -1.3763090000   -1.7833860000   -0.1902810000
H   0.0000010000   2.2131040000   -0.1583250000
