8
i121.xyz
C   -0.3435830000   0.0173760000   -0.0000010000
C   1.0453870000   0.6641730000   0.0000000000
F   -0.5758070000   -0.7598410000   1.0746450000
F   -1.3496910000   0.9399160000   -0.0000130000
F   -0.5757970000   -0.7598570000   -1.0746390000
O   2.0437460000   -0.1976410000   0.0000090000
H   0.9754290000   1.3549440000   0.8866400000
H   0.9754350000   1.3549340000   -0.8866480000
