7
i186.xyz
C   0.8747720000   -0.6919150000   -0.0000470000
C   0.8741300000   0.6926620000   0.0002660000
N   -0.4109140000   1.0943520000   -0.0004170000
N   -0.4099710000   -1.0946780000   -0.0001050000
N   -1.1615710000   -0.0005290000   0.0003310000
H   1.6925420000   -1.3959700000   -0.0003770000
H   1.6912410000   1.3974740000   0.0004020000
