16
i211.xyz
N   -2.7510570000   -1.4196510000   -0.0763910000
C   -1.7290820000   -0.4417180000   -0.0181870000
C   -2.0540140000   0.9121900000   -0.0070180000
C   -0.3896780000   -0.8196430000   -0.0210100000
C   -1.0399100000   1.8635790000   0.0063940000
C   0.2924310000   1.4783180000   0.0046520000
C   0.6248610000   0.1259980000   -0.0086240000
C   2.1082620000   -0.3310280000   0.0024040000
O   2.2803860000   -1.5643420000   0.0054490000
O   2.9440520000   0.5905700000   0.0092130000
H   -2.4349600000   -2.3178370000   0.2580750000
H   -3.5870960000   -1.1425660000   0.4159160000
H   -3.0954950000   1.2153840000   -0.0144520000
H   -0.0969830000   -1.8639570000   -0.0283850000
H   -1.3027120000   2.9152920000   0.0180520000
H   1.1019230000   2.1952400000   0.0165630000
