12
i212.xyz
N   2.3524920000   0.1464640000   0.0000270000
C   1.0338130000   0.0649280000   0.0000600000
C   0.2013160000   1.2314800000   0.0001300000
C   0.2650790000   -1.1600940000   -0.0000620000
C   -1.1712930000   1.1184140000   0.0000430000
C   -1.7823140000   -0.1354740000   -0.0000730000
N   -1.0489460000   -1.2586420000   -0.0001220000
H   2.7362460000   -0.7975850000   -0.0000700000
H   0.6877010000   2.1998660000   0.0002570000
H   0.8211140000   -2.0979250000   -0.0000630000
H   -1.7892790000   2.0112790000   0.0000970000
H   -2.8602140000   -0.2459100000   -0.0001390000
