17
i219.xyz
O   2.2659910000   -1.6027380000   0.0000020000
C   2.1156340000   -0.3671240000   0.0000000000
O   2.9678740000   0.5398600000   -0.0000030000
C   0.6418860000   0.1167260000   0.0000000000
C   -0.4015940000   -0.7986180000   0.0000000000
C   0.3398270000   1.4762450000   0.0000010000
C   -1.7346250000   -0.3912510000   0.0000000000
C   -0.9799440000   1.9017060000   0.0000010000
C   -2.8426660000   -1.4138210000   -0.0000010000
C   -2.0154180000   0.9711190000   0.0000000000
H   -0.1358710000   -1.8498480000   0.0000000000
H   1.1690200000   2.1713280000   0.0000010000
H   -1.2121480000   2.9603850000   0.0000020000
H   -3.8228090000   -0.9363210000   0.0000020000
H   -2.7802460000   -2.0590890000   0.8779440000
H   -2.7802500000   -2.0590840000   -0.8779510000
H   -3.0472110000   1.3057580000   0.0000000000
