16
i224.xyz
N   -3.4875470000   -0.0000060000   -0.0641450000
C   -2.0710670000   -0.0000010000   -0.0149390000
C   -1.3626890000   -1.1985830000   -0.0165950000
C   -1.3626890000   1.1985800000   -0.0165980000
C   0.0259260000   -1.1906060000   -0.0116710000
C   0.7424020000   -0.0000010000   -0.0073470000
C   0.0259260000   1.1906040000   -0.0116780000
C   2.2887700000   0.0000010000   0.0077090000
O   2.8183360000   -1.1275050000   0.0137480000
O   2.8183320000   1.1275080000   0.0137660000
H   -3.8858240000   0.8250720000   0.3591690000
H   -3.8858230000   -0.8250160000   0.3593030000
H   -1.9084200000   -2.1366730000   -0.0232470000
H   -1.9084200000   2.1366710000   -0.0232440000
H   0.5942470000   -2.1119280000   -0.0081780000
H   0.5942500000   2.1119250000   -0.0081900000
