6
i275.xyz
N   0.9331960000   0.6536950000   0.0000360000
N   -0.3245230000   1.1068480000   -0.0000620000
N   0.9333630000   -0.6534840000   -0.0000110000
C   -1.0636570000   -0.0001230000   0.0000740000
N   -0.3242530000   -1.1069170000   -0.0000380000
H   -2.1425400000   -0.0002510000   0.0000770000
