16
n008.xyz
C   1.8405180000   1.2231080000   -0.1315190000
C   2.5627240000   0.0484010000   0.0231920000
C   1.8972000000   -1.1648290000   0.1461380000
C   0.5126820000   -1.2022970000   0.1183320000
C   -0.2159500000   -0.0254420000   -0.0186100000
C   0.4536010000   1.1872980000   -0.1501250000
C   -1.7118610000   -0.1377870000   -0.0362400000
O   -2.2714100000   -1.1803330000   -0.2940910000
N   -2.4042380000   1.0071240000   0.2373610000
H   2.3560100000   2.1667670000   -0.2460400000
H   3.6437380000   0.0772840000   0.0402940000
H   2.4584950000   -2.0820620000   0.2602320000
H   -0.0281470000   -2.1352230000   0.1989280000
H   -0.0973130000   2.1061190000   -0.3037600000
H   -1.9632100000   1.7753740000   0.7087940000
H   -3.4021090000   0.9138270000   0.3257310000
