9
n162.xyz
C   -0.9405010000   -0.1921120000   -0.0015790000
C   0.5911780000   0.0183470000   -0.0002870000
F   0.9215910000   1.3175240000   -0.0357070000
F   1.1232210000   -0.5057360000   1.0947180000
F   1.1341240000   -0.5676680000   -1.0567680000
N   -1.6614290000   0.9453610000   0.0004330000
O   -1.3739940000   -1.3117740000   -0.0010460000
H   -2.6645740000   0.8715430000   0.0018250000
H   -1.2279630000   1.8506380000   -0.0054710000
