30
n175.xyz
C   1.9847610000   1.2642660000   -0.1818060000
C   3.5057310000   1.2771710000   -0.1083300000
C   1.6407490000   -0.0633230000   0.4996410000
C   3.8632340000   -0.1983560000   -0.0959110000
O   2.7643020000   -0.9158420000   0.2256280000
O   4.9190930000   -0.7027640000   -0.3173260000
C   0.3759840000   -0.7338440000   0.0122110000
C   -0.8659600000   0.1003030000   0.3060730000
C   -2.1532390000   -0.5769740000   -0.1490610000
C   -3.3984740000   0.2480140000   0.1515630000
C   -4.6872680000   -0.4106000000   -0.3258420000
C   -5.9219130000   0.4260890000   -0.0128930000
H   1.6507850000   1.2334600000   -1.2209890000
H   1.5111330000   2.1127570000   0.3054440000
H   3.8667930000   1.7077170000   0.8278980000
H   4.0128560000   1.7795240000   -0.9264650000
H   1.5936910000   0.0727690000   1.5856270000
H   0.2887920000   -1.7129140000   0.4880650000
H   0.4695200000   -0.9091490000   -1.0632930000
H   -0.7832500000   1.0744370000   -0.1854770000
H   -0.9235860000   0.3019440000   1.3807270000
H   -2.2394990000   -1.5548800000   0.3343680000
H   -2.0974440000   -0.7713280000   -1.2246040000
H   -3.3024440000   1.2331490000   -0.3167080000
H   -3.4624730000   0.4280170000   1.2295870000
H   -4.7811860000   -1.3958410000   0.1385530000
H   -4.6226670000   -0.5847260000   -1.4031470000
H   -6.8338850000   -0.0542190000   -0.3654420000
H   -5.8550980000   1.4068210000   -0.4863800000
H   -6.0208300000   0.5848440000   1.0619590000
