21
n184.xyz
C   -2.6064040000   -0.2907740000   0.0459810000
N   -1.3754010000   -0.6897330000   -0.4393940000
C   -0.1092070000   -0.0990370000   -0.2781740000
N   -2.6269390000   0.8606560000   0.7922560000
O   -3.6057850000   -0.9306310000   -0.2001980000
C   0.9889930000   -0.9253770000   -0.0367810000
C   0.0840890000   1.2735540000   -0.4037010000
C   2.2690950000   -0.4062230000   0.0902500000
C   1.3603970000   1.7993150000   -0.2519720000
C   3.4462920000   -1.3064740000   0.3479920000
C   2.4443080000   0.9735030000   -0.0086070000
H   -1.4135180000   -1.6127310000   -0.8412390000
H   -1.7870070000   1.1693010000   1.2521160000
H   -3.4924180000   1.0006220000   1.2848710000
H   0.8294920000   -1.9931610000   0.0584230000
H   -0.7502420000   1.9155070000   -0.6474030000
H   1.5076610000   2.8666810000   -0.3490440000
H   4.2082750000   -1.1761630000   -0.4207860000
H   3.1505020000   -2.3536480000   0.3595520000
H   3.9086180000   -1.0740340000   1.3078960000
H   3.4359190000   1.3952850000   0.0972390000
