13
n195.xyz
C   -0.3349410000   1.0265890000   0.0002920000
N   1.0645200000   0.9957230000   0.0001850000
C   1.8941550000   -0.1016670000   0.0002220000
N   1.2018340000   -1.3108940000   0.0001520000
C   -0.1512680000   -1.4044970000   0.0000370000
C   -0.9432100000   -0.3124780000   -0.0000030000
C   -2.3617530000   -0.4359350000   -0.0002720000
N   -3.5015430000   -0.5617560000   -0.0005190000
O   -0.9333830000   2.0663200000   -0.0001770000
O   3.0934300000   -0.0474640000   0.0001130000
H   1.5278410000   1.8948370000   0.0000950000
H   1.7822940000   -2.1349130000   0.0001210000
H   -0.5620830000   -2.4043540000   -0.0000860000
