      24
7463
 C  2.166100000 -0.356300000  0.000100000
 C  0.682600000 -0.203400000  0.000100000
 C  2.819700000  0.241500000  1.260400000
 C  2.819800000  0.240700000 -1.260500000
 C  0.112700000  1.069800000 -0.000100000
 C -0.135000000 -1.333400000  0.000300000
 C -2.092500000  0.082700000 -0.000100000
 C -1.274800000  1.212900000 -0.000200000
 C -1.522600000 -1.190400000  0.000100000
 C -3.575900000  0.235700000  0.000000000
 H  2.412200000 -1.427000000  0.000400000
 H  2.695000000  1.328600000  1.310300000
 H  3.894100000  0.028500000  1.273200000
 H  2.380800000 -0.188600000  2.167500000
 H  2.380800000 -0.189800000 -2.167400000
 H  3.894200000  0.027700000 -1.273200000
 H  2.695000000  1.327800000 -1.311000000
 H  0.730400000  1.963700000 -0.000700000
 H  0.292400000 -2.332600000  0.000000000
 H -1.707000000  2.210000000 -0.002200000
 H -2.149100000 -2.078500000 -0.001600000
 H -4.059500000 -0.600000000  0.517200000
 H -3.878700000  1.151500000  0.519300000
 H -3.949500000  0.275400000 -1.028000000
