      23
7583
 O -0.001700000  1.316300000  0.000000000
 C -1.165200000  0.612400000 -0.049200000
 C  1.182600000  0.600000000  0.049900000
 C -1.284300000 -0.479400000 -0.909100000
 C  1.281200000 -0.479600000  0.908900000
 C -2.239100000  0.983000000  0.760300000
 C  2.236000000  0.983300000 -0.760200000
 C -2.477400000 -1.200400000 -0.959900000
 C  2.474300000 -1.200400000  0.959600000
 C -3.432100000  0.261900000  0.709400000
 C  3.429000000  0.262300000 -0.709500000
 C -3.551100000 -0.829800000 -0.150700000
 C  3.548000000 -0.829600000  0.150400000
 H -0.473000000 -0.776600000 -1.568300000
 H  0.468400000 -0.773600000  1.566400000
 H -2.152300000  1.832300000  1.432400000
 H  2.144500000  1.832800000 -1.430100000
 H -2.572200000 -2.047100000 -1.633500000
 H  2.569200000 -2.047200000  1.633100000
 H -4.268400000  0.550500000  1.339500000
 H  4.265200000  0.551100000 -1.339400000
 H -4.480500000 -1.390300000 -0.191300000
 H  4.477400000 -1.390000000  0.190900000
