      26
8140
Br -5.349700000  0.519700000  0.028600000
 C  0.015000000  0.373800000 -0.044600000
 C  1.295900000 -0.463600000 -0.045100000
 C -1.229200000 -0.517500000 -0.037500000
 C  2.574300000  0.379300000 -0.029300000
 C -2.511100000  0.316000000 -0.003800000
 C  3.852500000 -0.456800000  0.043800000
 C -3.740200000 -0.575600000  0.043600000
 C  5.092400000  0.424700000  0.044400000
 H  0.000500000  1.023000000 -0.928200000
 H  0.006300000  1.026100000  0.837000000
 H  1.306000000 -1.113000000 -0.929300000
 H  1.293800000 -1.123100000  0.831800000
 H -1.229000000 -1.157700000 -0.928100000
 H -1.200500000 -1.179300000  0.836800000
 H  2.542500000  1.061300000  0.829600000
 H  2.599500000  1.006100000 -0.929400000
 H -2.548200000  0.963100000 -0.889200000
 H -2.497400000  0.978500000  0.870700000
 H  3.843800000 -1.069900000  0.952300000
 H  3.896600000 -1.142000000 -0.810700000
 H -3.803600000 -1.232600000 -0.828100000
 H -3.776800000 -1.175300000  0.957200000
 H  5.092200000  1.101500000  0.904800000
 H  5.995200000 -0.191700000  0.097200000
 H  5.145600000  1.027800000 -0.867700000
