17
test1005.xyz
C   2.8007320000   -0.9061520000   -0.1423630000
C   1.6775130000   0.1056270000   -0.3540820000
C   1.9161220000   1.3740060000   0.4588420000
H   2.8631340000   1.8337030000   0.1778020000
H   1.9622470000   1.1368240000   1.5242210000
H   1.1229660000   2.1035150000   0.3058790000
H   1.6292570000   0.3647720000   -1.4148770000
C   0.3615560000   -0.5514000000   0.0193160000
H   0.3227290000   -0.7792770000   1.0861820000
H   0.1898160000   -1.4686380000   -0.5436350000
O   -0.6736770000   0.3942840000   -0.2986250000
H   2.8613920000   -1.1977220000   0.9082400000
H   3.7596260000   -0.4721090000   -0.4221900000
H   2.6501450000   -1.8078430000   -0.7363110000
N   -1.9475480000   -0.0293540000   -0.0030380000
O   -2.7864050000   0.7740470000   -0.2682270000
O   -2.0729200000   -1.1233600000   0.4725620000
