7
test1021.xyz
C   0.2305450000   -0.0239270000   0.0003580000
Cl   0.5133850000   -0.7999770000   1.5451020000
Cl   0.5848520000   -1.0938740000   -1.3358090000
Cl   1.1013960000   1.4715870000   -0.1310510000
N   -1.3271700000   0.2619080000   -0.0515930000
O   -2.0125910000   -0.7199440000   -0.0535530000
O   -1.6732640000   1.4060310000   -0.0678360000
