14
test4007.xyz
C   2.9574070000   0.4920460000   0.0000150000
H   3.0370230000   1.1410800000   0.8756850000
H   3.0370330000   1.1411010000   -0.8756380000
C   1.5896210000   -0.1901520000   0.0000010000
H   1.5004030000   -0.8354550000   -0.8763800000
H   1.5003940000   -0.8354730000   0.8763670000
C   0.4699870000   0.8297140000   0.0000060000
H   0.4854380000   1.4573860000   -0.8860070000
H   0.4854340000   1.4573720000   0.8860280000
I   -1.4699730000   -0.0917970000   -0.0000050000
C   4.0988370000   -0.5181500000   0.0000100000
H   4.0496020000   -1.1595620000   -0.8806850000
H   5.0685340000   -0.0223690000   0.0000240000
H   4.0495890000   -1.1595860000   0.8806860000
