38
test1036.xyz
P   2.4401050000   -1.0015430000   0.1471840000
S   1.4710810000   -1.8415440000   1.5708270000
O   3.3121860000   -1.9131690000   -0.8012800000
C   2.7596620000   -3.1164160000   -1.3387800000
H   3.5349530000   -3.5542430000   -1.9589910000
H   1.8822580000   -2.8886960000   -1.9447560000
H   2.4890790000   -3.7954850000   -0.5322960000
S   1.2529140000   0.0341330000   -1.2493720000
C   -0.2909020000   0.3171390000   -0.3093250000
H   -0.0451580000   0.3238790000   0.7494420000
C   -1.3299500000   -0.7407920000   -0.6185140000
H   -0.9381160000   -1.7296310000   -0.3772610000
H   -1.5949240000   -0.7299670000   -1.6756370000
O   3.5808790000   0.0110140000   0.5551850000
C   3.2536760000   1.1298480000   1.3820350000
H   4.1745760000   1.6880380000   1.5152750000
H   2.8787100000   0.7852710000   2.3447720000
H   2.5060330000   1.7551410000   0.8901340000
C   -0.7776580000   1.6995070000   -0.7036530000
O   -1.5944340000   1.9032140000   -1.5577420000
O   -0.1635900000   2.6512570000   -0.0039760000
C   -0.5426760000   3.9990830000   -0.3197010000
H   -1.6151510000   4.1021790000   -0.1557100000
H   -0.3460560000   4.1768050000   -1.3770900000
C   0.2610370000   4.9143180000   0.5708860000
H   1.3277080000   4.7821120000   0.3949150000
H   0.0522810000   4.7097640000   1.6196870000
H   0.0039840000   5.9518670000   0.3624970000
C   -2.5767850000   -0.5060380000   0.1978130000
O   -2.6948820000   0.3556930000   1.0272150000
O   -3.5332800000   -1.3840640000   -0.1049920000
C   -4.7604630000   -1.2509830000   0.6264760000
H   -5.1555440000   -0.2484460000   0.4629170000
H   -4.5446000000   -1.3546940000   1.6900010000
C   -5.7010500000   -2.3216370000   0.1299770000
H   -5.2767960000   -3.3112210000   0.2923140000
H   -5.8952720000   -2.1981640000   -0.9341700000
H   -6.6478380000   -2.2585350000   0.6643830000
