34
test1019.xyz
C   3.7415240000   0.8760980000   -0.4053930000
Cl   5.3330580000   1.5228490000   -0.6126110000
C   2.6670350000   1.7395360000   -0.2519530000
H   2.8258600000   2.8075600000   -0.2633230000
C   1.4032810000   1.2063840000   -0.0852410000
H   0.5508620000   1.8620440000   0.0369160000
C   1.1909310000   -0.1716620000   -0.0586340000
C   -0.1908820000   -0.6607660000   0.1282530000
O   -1.0419650000   -0.2604060000   -0.8916190000
P   -2.3782150000   0.5762300000   -0.7059480000
O   -3.3917330000   -0.3421630000   0.0841240000
C   -4.3748110000   -1.1034480000   -0.6494350000
H   -4.9059310000   -0.4231060000   -1.3139470000
H   -5.0608030000   -1.4739350000   0.1086500000
C   -3.7335900000   -2.2334450000   -1.4244740000
H   -3.1594440000   -2.8818390000   -0.7630710000
H   -3.0715380000   -1.8439750000   -2.1977010000
H   -4.5062860000   -2.8302680000   -1.9078500000
O   -1.9368500000   1.6181640000   0.3826000000
C   -2.8832940000   2.6037490000   0.8392290000
H   -3.6813650000   2.0870050000   1.3740520000
H   -3.3072160000   3.1050140000   -0.0318090000
C   -2.1491870000   3.5680040000   1.7376190000
H   -1.3607170000   4.0786370000   1.1869090000
H   -1.7033710000   3.0402960000   2.5791420000
H   -2.8420360000   4.3151520000   2.1223120000
C   -0.6484960000   -1.3807870000   1.1422870000
Cl   0.3345820000   -1.8555350000   2.4652190000
H   -1.6817550000   -1.6811630000   1.2091850000
C   2.2876120000   -1.0105640000   -0.2391560000
Cl   2.0977840000   -2.7269250000   -0.3119240000
C   3.5657260000   -0.4953410000   -0.4066090000
H   4.4047750000   -1.1602670000   -0.5468460000
O   -2.8913400000   1.0771840000   -1.9693540000
