24
test1014.xyz
C   -2.2274020000   -0.7685350000   -0.9112460000
C   -3.5098040000   -1.4005670000   -0.3451840000
C   -3.9588350000   -0.6640430000   0.8874720000
C   -3.9588320000   0.6641810000   0.8874120000
C   -3.5097760000   1.4005910000   -0.3453030000
C   -2.2273690000   0.7684900000   -0.9112620000
C   -1.0385410000   1.1736250000   -0.0547340000
O   -0.7287460000   2.2777840000   0.2714150000
N   -0.3472270000   -0.0000480000   0.3187920000
S   1.0245880000   -0.0000700000   1.2887510000
C   -1.0385260000   -1.1737080000   -0.0548040000
O   -0.7287830000   -2.2778720000   0.2713750000
H   -2.0343700000   -1.1702490000   -1.9065750000
H   -4.2884630000   -1.3486670000   -1.1115630000
H   -3.3225150000   -2.4533850000   -0.1434390000
H   -4.2777560000   -1.2270560000   1.7547330000
H   -4.2777480000   1.2272730000   1.7546240000
H   -3.3224800000   2.4534230000   -0.1436420000
H   -4.2884160000   1.3486320000   -1.1116980000
H   -2.0342370000   1.1701630000   -1.9065890000
C   2.3089640000   0.0000090000   0.0009630000
Cl   2.2235290000   1.4363710000   -1.0298440000
Cl   2.2235690000   -1.4362510000   -1.0299880000
Cl   3.8178510000   -0.0000160000   0.9245600000
