20
test0008.xyz
O   -2.3376270000   0.1169500000   1.0591340000
C   -1.9408300000   -0.3700410000   0.0383470000
C   -2.6220780000   -1.4576710000   -0.7364260000
O   -0.7969280000   0.0090380000   -0.5643080000
C   0.0271240000   0.9187710000   0.1564900000
C   -0.3185160000   2.3422300000   -0.1845850000
O   1.3452750000   0.6657240000   -0.2730760000
C   1.9142960000   -0.4745650000   0.1898540000
O   1.3635700000   -1.2221400000   0.9431650000
C   3.2948990000   -0.6447900000   -0.3684250000
H   -3.5906420000   -1.6627220000   -0.2940190000
H   -2.7307010000   -1.1609430000   -1.7777190000
H   -2.0005050000   -2.3518200000   -0.7083170000
H   -0.0681630000   0.7029320000   1.2183590000
H   -0.2115560000   2.4998840000   -1.2564690000
H   -1.3456650000   2.5395810000   0.1149740000
H   0.3444310000   3.0220910000   0.3467970000
H   3.9009940000   0.2242790000   -0.1181690000
H   3.2391880000   -0.7067690000   -1.4541690000
H   3.7389350000   -1.5466920000   0.0378830000
