8
0002eth.xyz
C   0.0000000000   0.7625320000   0.0000000000
C   0.0000000000   -0.7625320000   0.0000000000
H   1.0155590000   1.1567990000   0.0000000000
H   -1.0155590000   -1.1567990000   0.0000000000
H   -0.5075960000   1.1568840000   0.8795870000
H   -0.5075960000   1.1568840000   -0.8795870000
H   0.5075960000   -1.1568840000   0.8795870000
H   0.5075960000   -1.1568840000   -0.8795870000
