14
0010met.xyz
C   0.0000000000   1.4495950000   -0.0962320000
C   0.0000000000   0.0000000000   0.3805460000
H   0.0000000000   0.0000000000   1.4744760000
H   -0.8830190000   1.9835650000   0.2564380000
H   0.8830190000   1.9835650000   0.2564380000
H   0.0000000000   1.4876590000   -1.1880670000
C   1.2553860000   -0.7247970000   -0.0962320000
C   -1.2553860000   -0.7247970000   -0.0962320000
H   1.2763080000   -1.7564990000   0.2564380000
H   1.2883500000   -0.7438290000   -1.1880670000
H   2.1593270000   -0.2270660000   0.2564380000
H   -1.2883500000   -0.7438290000   -1.1880670000
H   -1.2763080000   -1.7564990000   0.2564380000
H   -2.1593270000   -0.2270660000   0.2564380000
