20
0012met.xyz
C   -2.7218720000   -0.0000030000   -0.0811230000
C   -1.2471490000   0.0000030000   -0.4688520000
C   -0.3392660000   -0.0000230000   0.7587750000
H   -0.5807240000   -0.8756710000   1.3698550000
H   -1.0348000000   -0.8755020000   -1.0861250000
H   -1.0347980000   0.8755350000   -1.0860880000
H   -2.9663010000   0.8801900000   0.5155590000
H   -2.9663050000   -0.8802250000   0.5155150000
H   -3.3686440000   0.0000200000   -0.9579610000
C   1.1674210000   -0.0000020000   0.4709990000
C   1.6114150000   1.2553850000   -0.2773230000
C   1.6114490000   -1.2553630000   -0.2773440000
H   1.6702740000   -0.0000040000   1.4427000000
H   1.2824810000   2.1608590000   0.2350660000
H   1.2044110000   1.2746100000   -1.2895400000
H   2.6980670000   1.2912340000   -0.3625580000
H   -0.5807380000   0.8755890000   1.3699000000
H   1.2044560000   -1.2745780000   -1.2895640000
H   1.2825310000   -2.1608550000   0.2350250000
H   2.6981030000   -1.2911870000   -0.3625690000
