9
0016cyc.xyz
C   0.0000000000   0.0000000000   0.8655130000
C   0.0000000000   0.7495080000   -0.4328280000
C   0.0000000000   -0.7495080000   -0.4328280000
H   0.9085180000   0.0000000000   1.4485720000
H   0.9084350000   1.2546790000   -0.7240720000
H   0.9084350000   -1.2546790000   -0.7240720000
H   -0.9085180000   0.0000000000   1.4485720000
H   -0.9084350000   1.2546790000   -0.7240720000
H   -0.9084350000   -1.2546790000   -0.7240720000
