15
0027pen.xyz
C   2.1048190000   -0.6615630000   -0.0000040000
C   1.5143040000   0.5247880000   0.0000000000
C   0.0351560000   0.7766160000   0.0000020000
C   -0.8435340000   -0.4663290000   0.0000000000
H   3.1825490000   -0.7486680000   -0.0000050000
H   1.5402870000   -1.5849820000   -0.0000060000
H   2.1378440000   1.4140670000   0.0000020000
H   -0.2126210000   1.3951500000   -0.8695760000
H   -0.2126190000   1.3951460000   0.8695830000
H   -0.6070320000   -1.0756330000   0.8753730000
H   -0.6070330000   -1.0756300000   -0.8753760000
C   -2.3268530000   -0.1160130000   0.0000020000
H   -2.5879500000   0.4729180000   -0.8804710000
H   -2.5879480000   0.4729150000   0.8804760000
H   -2.9488260000   -1.0102750000   0.0000000000
