7
0031pro.xyz
C   0.0000000000   0.0000000000   1.4157500000
C   0.0000000000   0.0000000000   0.2196470000
H   0.0000000000   0.0000000000   2.4782490000
C   0.0000000000   0.0000000000   -1.2375400000
H   0.0000000000   1.0190120000   -1.6217980000
H   0.8824900000   -0.5095060000   -1.6217980000
H   -0.8824900000   -0.5095060000   -1.6217980000
