12
0048pro.xyz
C   -0.2876840000   -0.6063510000   1.2606870000
H   -0.2750420000   0.0261410000   2.1466890000
H   0.5965030000   -1.2487110000   1.2812550000
H   -1.1682390000   -1.2480540000   1.2987770000
C   -0.2876840000   0.2438560000   0.0000000000
H   -1.1722820000   0.8831880000   0.0000000000
C   -0.2876840000   -0.6063510000   -1.2606870000
H   -0.2750420000   0.0261410000   -2.1466890000
H   0.5965030000   -1.2487110000   -1.2812550000
H   -1.1682390000   -1.2480540000   -1.2987770000
O   0.8028500000   1.1527050000   0.0000000000
H   1.6213590000   0.6494980000   0.0000000000
