21
0054hex.xyz
C   1.2440470000   -0.3460770000   -0.0076520000
C   -0.0372990000   0.4787750000   0.0188800000
C   2.5081260000   0.5054420000   0.0179960000
C   -1.2988200000   -0.3758840000   -0.0192420000
H   1.2505120000   -0.9752860000   -0.9031890000
H   1.2523450000   -1.0304870000   0.8466320000
H   -0.0407510000   1.1658500000   -0.8329850000
H   -0.0451330000   1.1043540000   0.9169890000
C   3.7793670000   -0.3346910000   -0.0124270000
C   -2.5652860000   0.4625220000   0.0089870000
H   2.5005920000   1.1325640000   0.9134480000
H   2.4969280000   1.1886940000   -0.8352530000
H   -1.3010420000   -1.0611500000   0.8355060000
H   -1.3073160000   -0.9943940000   -0.9199310000
H   4.6738130000   0.2870650000   0.0032900000
O   -3.7448550000   -0.3119550000   -0.0885100000
H   3.8144860000   -0.9500210000   -0.9126300000
H   3.8213670000   -1.0049200000   0.8473310000
H   -2.5830030000   1.1365530000   -0.8483210000
H   -2.5815500000   1.0842730000   0.9117810000
H   -3.7732100000   -0.9279790000   0.6461580000
