33
0059dec.xyz
C   6.3338860000   -0.3759690000   0.0000010000
C   5.0709940000   0.4774620000   0.0000110000
H   6.3656000000   -1.0196150000   0.8803560000
H   7.2349530000   0.2364600000   0.0000090000
H   6.3656010000   -1.0195950000   -0.8803680000
H   5.0682980000   1.1331940000   -0.8747390000
H   5.0682970000   1.1331730000   0.8747750000
C   3.7979500000   -0.3611550000   0.0000000000
C   2.5237600000   0.4748240000   0.0000090000
H   3.7995860000   -1.0188350000   0.8752110000
H   3.7995880000   -1.0188150000   -0.8752270000
C   1.2535000000   -0.3674610000   -0.0000020000
H   2.5222710000   1.1320070000   -0.8754120000
H   2.5222700000   1.1319870000   0.8754440000
C   -0.0226770000   0.4658340000   0.0000080000
H   1.2556930000   -1.0247820000   0.8752300000
H   1.2556940000   -1.0247610000   -0.8752500000
C   -1.2903180000   -0.3800880000   -0.0000030000
H   -0.0256540000   1.1229300000   -0.8754700000
H   -0.0256540000   1.1229100000   0.8755010000
C   -2.5684420000   0.4507870000   0.0000050000
H   -1.2875020000   -1.0370510000   0.8752020000
H   -1.2875000000   -1.0370310000   -0.8752220000
C   -3.8296090000   -0.4043070000   -0.0000040000
H   -2.5701980000   1.1074460000   -0.8757510000
H   -2.5701990000   1.1074290000   0.8757740000
C   -5.0926280000   0.4299830000   -0.0000090000
H   -3.8417840000   -1.0556710000   0.8771480000
H   -3.8417740000   -1.0556670000   -0.8771590000
O   -6.2041690000   -0.4485120000   -0.0000020000
H   -5.1088370000   1.0755400000   -0.8854790000
H   -5.1088380000   1.0755530000   0.8854510000
H   -7.0150500000   0.0618260000   -0.0001020000
