13
0061tet.xyz
C   0.7722150000   1.0112410000   -0.0492930000
H   1.1580390000   1.3665520000   -1.0024460000
H   1.1901790000   1.6391110000   0.7346930000
C   -0.7740540000   1.0096350000   -0.0512300000
H   -1.1580570000   1.3607220000   -1.0066930000
H   -1.1955270000   1.6392620000   0.7294640000
C   -1.1237750000   -0.4705300000   0.1600500000
H   -1.9946770000   -0.8035610000   -0.3998590000
C   1.1248420000   -0.4689750000   0.1585830000
H   1.9950560000   -0.7994730000   -0.4038810000
H   1.2906440000   -0.6801390000   1.2222640000
H   -1.2866780000   -0.6801540000   1.2245140000
O   0.0007060000   -1.1913180000   -0.3008400000
