15
0064met.xyz
O   -1.2648730000   -0.2913600000   0.0000000000
C   -2.3147450000   0.6381850000   0.0000000000
H   -3.2491660000   0.0820970000   0.0000000000
H   -2.2793010000   1.2777320000   0.8892290000
H   -2.2793010000   1.2777320000   -0.8892290000
C   0.0000000000   0.3226710000   0.0000000000
C   1.0723400000   -0.7450900000   0.0000000000
H   0.1037130000   0.9672290000   0.8850080000
H   0.1037130000   0.9672290000   -0.8850080000
C   2.4701620000   -0.1389370000   0.0000000000
H   0.9304730000   -1.3794170000   0.8764930000
H   0.9304730000   -1.3794170000   -0.8764930000
H   3.2355760000   -0.9131310000   0.0000000000
H   2.6281260000   0.4849320000   -0.8808530000
H   2.6281260000   0.4849320000   0.8808530000
