16
0066dim.xyz
C   -0.0622760000   0.7531850000   0.0000000000
C   0.0622760000   -0.7531850000   0.0000000000
O   1.2345190000   1.2907840000   0.0000000000
O   -1.2345190000   -1.2907840000   0.0000000000
C   1.2345190000   2.6943550000   0.0000000000
C   -1.2345190000   -2.6943550000   0.0000000000
H   2.2704430000   3.0240960000   0.0000000000
H   -2.2704430000   -3.0240960000   0.0000000000
H   0.7316620000   3.0893340000   0.8894530000
H   -0.7316620000   -3.0893340000   0.8894530000
H   0.7316620000   3.0893340000   -0.8894530000
H   -0.7316620000   -3.0893340000   -0.8894530000
H   -0.6203470000   1.0779920000   0.8867750000
H   0.6203470000   -1.0779920000   0.8867750000
H   -0.6203470000   1.0779920000   -0.8867750000
H   0.6203470000   -1.0779920000   -0.8867750000
