16
0068ani.xyz
C   0.4523190000   -0.2767970000   0.0000000000
C   0.0419670000   1.0516690000   0.0000000000
C   -0.4972430000   -1.2983020000   0.0000000000
C   -1.3188670000   1.3454590000   0.0000000000
C   -1.8435090000   -0.9898060000   -0.0000010000
C   -2.2655310000   0.3369640000   0.0000000000
H   0.7605300000   1.8571940000   0.0000010000
H   -0.1498450000   -2.3222380000   -0.0000010000
H   -1.6318500000   2.3811700000   0.0000000000
H   -2.5711310000   -1.7902960000   -0.0000010000
H   -3.3197250000   0.5751070000   0.0000000000
O   1.7498440000   -0.6732870000   0.0000000000
C   2.7427520000   0.3257520000   0.0000000000
H   3.6966800000   -0.1930640000   0.0000000000
H   2.6726310000   0.9543950000   0.8911110000
H   2.6726310000   0.9543950000   -0.8911100000
