13
0072but.xyz
C   0.1135160000   -0.4725500000   0.2549460000
C   -0.9975350000   0.5077420000   -0.1302080000
H   -0.0891700000   -0.8653190000   1.2571290000
H   0.1643120000   -1.3110090000   -0.4393610000
C   -2.3730650000   -0.1454940000   -0.0881620000
H   -0.9742640000   1.3659150000   0.5460310000
H   -0.8003670000   0.8954580000   -1.1316410000
H   -3.1540170000   0.5569810000   -0.3756510000
H   -2.4187550000   -0.9962210000   -0.7686150000
H   -2.5989600000   -0.5093510000   0.9148870000
C   1.4498110000   0.2116190000   0.2913850000
O   2.4001300000   -0.1028980000   -0.3688780000
H   1.5138170000   1.0788210000   0.9804830000
