8
0086eth.xyz
C   0.0901750000   0.1261660000   -0.0000160000
C   -1.3876260000   -0.1250920000   0.0000300000
O   0.6214990000   1.1992790000   -0.0000910000
O   0.7894150000   -1.0261600000   0.0000560000
H   1.7266100000   -0.7932540000   0.0000430000
H   -1.6565450000   -0.7099250000   -0.8781900000
H   -1.9161340000   0.8213470000   -0.0001560000
H   -1.6565320000   -0.7095570000   0.8785010000
