17
0089pen.xyz
C   0.5442640000   -0.6373530000   0.0000000000
C   0.0000000000   0.7813030000   0.0000000000
C   -1.5025610000   0.8341540000   0.0000000000
O   -2.2395980000   -0.1106300000   0.0000000000
H   0.3475290000   1.3429810000   0.8709130000
H   0.3475290000   1.3429810000   -0.8709130000
H   0.1597410000   -1.1707410000   -0.8718050000
H   0.1597410000   -1.1707410000   0.8718050000
C   2.0676150000   -0.6702680000   0.0000000000
O   -1.9568310000   2.1035500000   0.0000000000
C   2.6148050000   -2.0925550000   0.0000000000
H   2.4411440000   -0.1312980000   0.8749050000
H   2.4411440000   -0.1312980000   -0.8749050000
H   3.7038950000   -2.1031950000   0.0000000000
H   2.2736860000   -2.6388190000   0.8802950000
H   2.2736860000   -2.6388190000   -0.8802950000
H   -2.9214020000   2.0638980000   0.0000000000
