11
0093met.xyz
H   -2.5801950000   0.2376470000   0.0000010000
C   -1.7937430000   -0.5087080000   0.0000000000
C   -0.4568240000   0.1741290000   0.0000000000
O   -0.2775210000   1.3600400000   0.0000000000
H   -1.8779350000   -1.1461230000   -0.8784900000
H   -1.8779340000   -1.1461250000   0.8784890000
O   0.5451690000   -0.7186290000   0.0000000000
C   1.8572800000   -0.1617660000   0.0000000000
H   2.5396520000   -1.0049860000   -0.0000010000
H   2.0074760000   0.4531800000   0.8851240000
H   2.0074750000   0.4531820000   -0.8851230000
