14
0095eth.xyz
C   -1.0300060000   0.1441010000   0.0000060000
O   -1.1855590000   1.3338380000   0.0000060000
O   0.1772770000   -0.4399700000   0.0000000000
C   1.3009780000   0.4489180000   -0.0000090000
H   1.2406030000   1.0898780000   0.8795850000
H   1.2405920000   1.0898750000   -0.8796040000
C   -2.1299390000   -0.8785100000   0.0000140000
H   -2.0369220000   -1.5147410000   -0.8784700000
H   -2.0369100000   -1.5147400000   0.8784980000
H   -3.0904940000   -0.3755220000   0.0000200000
C   2.5504620000   -0.3980910000   -0.0000150000
H   3.4313740000   0.2421660000   -0.0000220000
H   2.5845310000   -1.0331820000   0.8836570000
H   2.5845200000   -1.0331840000   -0.8836860000
