20
0099but.xyz
C   -2.1840110000   0.1166220000   0.0001540000
C   -3.2788630000   -0.9115820000   0.0000990000
O   -2.3457790000   1.3055410000   0.0003000000
O   -0.9740410000   -0.4615230000   0.0000130000
C   0.1449420000   0.4310480000   0.0000450000
H   -3.1825610000   -1.5474570000   0.8784910000
H   -4.2419660000   -0.4134660000   0.0002410000
H   -3.1826970000   -1.5472140000   -0.8784830000
C   1.4075000000   -0.3997900000   -0.0001360000
H   0.0857540000   1.0737230000   -0.8800220000
H   0.0858680000   1.0735150000   0.8802710000
C   2.6567940000   0.4743470000   -0.0001140000
H   1.4084880000   -1.0507970000   0.8772600000
H   1.4083740000   -1.0505880000   -0.8776870000
C   3.9375880000   -0.3514870000   -0.0002950000
H   2.6407640000   1.1293130000   -0.8747840000
H   2.6408770000   1.1291050000   0.8747150000
H   4.8224060000   0.2834370000   -0.0002750000
H   3.9848280000   -0.9934380000   0.8801160000
H   3.9847160000   -0.9932270000   -0.8808650000
