13
0107tri.xyz
N   -0.3850220000   0.0002620000   0.0000000000
C   0.0619380000   1.3782960000   0.0000000000
C   0.0619380000   -0.6891500000   1.1931710000
C   0.0619380000   -0.6891500000   -1.1931710000
H   1.1621330000   1.4592110000   0.0000000000
H   1.1621610000   -0.7299440000   1.2627530000
H   1.1621610000   -0.7299440000   -1.2627530000
H   -0.3179130000   1.8900160000   0.8838860000
H   -0.3178670000   -1.7104280000   1.1941030000
H   -0.3173110000   -0.1801500000   -2.0788830000
H   -0.3179130000   1.8900160000   -0.8838860000
H   -0.3173110000   -0.1801500000   2.0788830000
H   -0.3178670000   -1.7104280000   -1.1941030000
