22
0114NNd.xyz
C   -0.2563100000   -0.7141140000   1.1913690000
C   -0.2563100000   -0.7141140000   -1.1913690000
C   0.2563100000   0.7141140000   -1.1913690000
C   0.2563100000   0.7141140000   1.1913690000
C   0.2563100000   2.7927360000   0.0000000000
C   -0.2563100000   -2.7927360000   0.0000000000
N   -0.1914530000   1.4159120000   0.0000000000
N   0.1914530000   -1.4159120000   0.0000000000
H   -1.3582970000   -0.7000050000   1.2492910000
H   -1.3582970000   -0.7000050000   -1.2492910000
H   1.3582970000   0.7000050000   -1.2492910000
H   1.3582970000   0.7000050000   1.2492910000
H   0.1204360000   -1.2407680000   2.0697370000
H   0.1204360000   -1.2407680000   -2.0697370000
H   -0.1204360000   1.2407680000   -2.0697370000
H   -0.1204360000   1.2407680000   2.0697370000
H   1.3554700000   2.8739180000   0.0000000000
H   -1.3554700000   -2.8739180000   0.0000000000
H   -0.1242900000   3.3041080000   0.8839890000
H   0.1242900000   -3.3041080000   0.8839890000
H   -0.1242900000   3.3041080000   -0.8839890000
H   0.1242900000   -3.3041080000   -0.8839890000
