13
0117met.xyz
C   0.8546230000   -0.0159320000   -0.0000020000
N   0.2214000000   -1.1881960000   -0.0000010000
C   0.1295850000   1.1758420000   -0.0000030000
C   -1.1046140000   -1.1603260000   0.0000010000
N   -1.1966150000   1.2067150000   -0.0000010000
C   -1.8153550000   0.0326310000   0.0000010000
H   0.6446120000   2.1298610000   -0.0000080000
H   -1.6195420000   -2.1137360000   0.0000000000
H   -2.8981490000   0.0386540000   0.0000020000
C   2.3525750000   -0.0356330000   0.0000020000
H   2.7171100000   -0.5676570000   -0.8781010000
H   2.7644740000   0.9711350000   -0.0001530000
H   2.7171140000   -0.5673780000   0.8782740000
