17
0123dim.xyz
C   1.1925340000   -0.2553460000   0.0008870000
N   1.2436450000   1.0783140000   0.0068560000
C   0.0938010000   1.7433460000   0.0022510000
C   -1.1507410000   1.1331320000   -0.0070890000
C   -1.2184820000   -0.2546350000   -0.0107510000
C   -0.0145960000   -0.9478460000   -0.0089100000
H   -2.0515060000   1.7329650000   -0.0144100000
H   0.1694860000   2.8251380000   0.0036380000
H   -0.0111710000   -2.0307350000   -0.0180900000
C   2.5108920000   -0.9732700000   0.0016220000
C   -2.5364070000   -0.9745100000   0.0073480000
H   3.0894730000   -0.6870740000   -0.8763000000
H   3.0896770000   -0.6841190000   0.8783610000
H   2.3808290000   -2.0533230000   0.0032570000
H   -3.2897590000   -0.4283580000   -0.5581320000
H   -2.4446960000   -1.9756140000   -0.4101110000
H   -2.8998570000   -1.0722970000   1.0316500000
