13
0129ben.xyz
C   0.0000000000   0.0000000000   0.6021430000
C   0.0000000000   1.2098550000   -0.0900100000
C   0.0000000000   -1.2098550000   -0.0900100000
C   0.0000000000   1.2040930000   -1.4748280000
C   0.0000000000   -1.2040930000   -1.4748280000
C   0.0000000000   0.0000000000   -2.1665510000
H   0.0000000000   2.1393560000   0.4615410000
H   0.0000000000   -2.1393560000   0.4615410000
H   0.0000000000   2.1404920000   -2.0146840000
H   0.0000000000   -2.1404920000   -2.0146840000
H   0.0000000000   0.0000000000   -3.2477560000
C   0.0000000000   0.0000000000   2.0376890000
N   0.0000000000   0.0000000000   3.1846320000
