13
0146met.xyz
O   1.1366560000   0.4985540000   -0.0622460000
C   0.0235820000   -0.3494160000   0.0270900000
C   -1.2260910000   0.5099590000   0.0023310000
H   0.0487740000   -0.9372700000   0.9530030000
H   0.0115190000   -1.0567650000   -0.8157850000
H   -1.2266880000   1.1713350000   0.8672060000
H   -1.2226640000   1.1342560000   -0.8954440000
C   2.3549420000   -0.1946450000   0.0161940000
H   2.4520230000   -0.7143350000   0.9754710000
H   2.4440220000   -0.9309080000   -0.7902530000
H   3.1554760000   0.5349490000   -0.0775940000
O   -2.3947960000   -0.2777720000   0.0918220000
H   -2.5119420000   -0.7629070000   -0.7268970000
