11
0167chla.xyz
C   0.0000000000   0.5828690000   0.0000000000
H   0.1604380000   1.1943720000   0.8847850000
H   0.1604380000   1.1943720000   -0.8847850000
C   0.8959830000   -0.6385620000   0.0000000000
H   0.6680830000   -1.2460650000   -0.8765500000
H   0.6680830000   -1.2460650000   0.8765500000
C   2.3660140000   -0.2304760000   0.0000000000
H   2.6086530000   0.3642760000   0.8813990000
H   2.6086530000   0.3642760000   -0.8813990000
H   3.0128090000   -1.1061510000   0.0000000000
Cl   -1.7328910000   0.1292940000   0.0000000000
