12
0175odi.xyz
C   0.0000000000   0.6957200000   -0.0283380000
C   0.0000000000   -0.6957200000   -0.0283380000
C   0.0000000000   1.3859790000   1.1757240000
C   0.0000000000   -1.3859790000   1.1757240000
C   0.0000000000   0.6938130000   2.3751920000
C   0.0000000000   -0.6938130000   2.3751920000
Cl   0.0000000000   -1.5867410000   -1.5057530000
H   0.0000000000   2.4662140000   1.1554330000
H   0.0000000000   -2.4662140000   1.1554330000
H   0.0000000000   1.2413600000   3.3068930000
H   0.0000000000   -1.2413600000   3.3068930000
Cl   0.0000000000   1.5867410000   -1.5057530000
