11
0183bro.xyz
C   -0.9141460000   0.0000000000   0.4157780000
Br   1.0086490000   0.0000000000   -0.0256600000
H   -0.9221350000   0.0000000000   1.5023600000
C   -1.5489580000   1.2634060000   -0.1266070000
C   -1.5489580000   -1.2634060000   -0.1266070000
H   -1.0727930000   2.1543830000   0.2757390000
H   -1.0727930000   -2.1543830000   0.2757390000
H   -1.4754100000   1.2903400000   -1.2133900000
H   -1.4754100000   -1.2903400000   -1.2133900000
H   -2.6058900000   1.2785970000   0.1478270000
H   -2.6058900000   -1.2785970000   0.1478270000
