8
0201bro.xyz
C   -1.2021890000   -0.5689670000   -0.0016140000
C   -0.1104660000   0.3636500000   -0.5249960000
Cl   -0.4145440000   2.0021210000   0.0300450000
F   -2.3930610000   -0.1457030000   -0.4197440000
F   -1.2210240000   -0.6276260000   1.3205810000
F   -1.0197830000   -1.7980450000   -0.4769930000
Br   1.6219830000   -0.2860970000   0.0126600000
H   -0.1413960000   0.3516240000   -1.6088080000
