35
0222tri.xyz
P   -0.1479080000   0.0159340000   0.8859520000
O   -1.3961590000   -0.5872800000   0.1406890000
O   0.4303860000   0.9966460000   -0.2189420000
O   0.8379160000   -1.2049010000   0.9408990000
C   1.1340780000   -1.9774640000   -0.2294160000
C   1.4427720000   1.9413240000   0.1567340000
C   -2.5677720000   0.2259680000   -0.0218770000
C   2.2954120000   -2.8947190000   0.0810900000
C   1.6311620000   2.9223130000   -0.9781940000
C   -3.6523150000   -0.6133200000   -0.6573410000
C   2.6409820000   -3.7657080000   -1.1207070000
C   -4.9204360000   0.2043530000   -0.8705300000
C   2.7105390000   3.9450850000   -0.6452010000
H   2.8389270000   4.6586750000   -1.4569300000
H   3.6719530000   3.4599060000   -0.4724080000
H   2.4543390000   4.5054500000   0.2545460000
H   3.4757270000   -4.4271990000   -0.8968450000
H   2.9195030000   -3.1565810000   -1.9816660000
H   1.7923910000   -4.3857770000   -1.4122000000
H   -5.7033370000   -0.3988180000   -1.3263450000
H   -4.7320050000   1.0565930000   -1.5246850000
H   -5.3028450000   0.5886350000   0.0757160000
H   0.6790540000   3.4200450000   -1.1689280000
H   1.8916770000   2.3712150000   -1.8833510000
H   3.1539110000   -2.2891200000   0.3757050000
H   2.0310410000   -3.5127850000   0.9401130000
H   -3.8534500000   -1.4709870000   -0.0137230000
H   -3.2838680000   -1.0031460000   -1.6076010000
H   2.3717930000   1.4009820000   0.3618410000
H   1.1320240000   2.4470830000   1.0726760000
H   1.3780820000   -1.3029100000   -1.0545500000
H   0.2453330000   -2.5488210000   -0.5039980000
H   -2.3154100000   1.0811550000   -0.6541650000
H   -2.8769130000   0.5959400000   0.9577410000
O   -0.3766220000   0.6385930000   2.1801560000
