17
0225pipa.xyz
N   -1.3734780000   -0.0000210000   -0.3139940000
C   0.7123480000   1.2554460000   -0.2298330000
C   0.7123850000   -1.2554250000   -0.2298340000
C   -0.7467060000   -1.2080320000   0.2071680000
C   -0.7467420000   1.2080110000   0.2071670000
C   1.4486420000   0.0000210000   0.2356550000
H   0.7466070000   1.3170120000   -1.3200910000
H   0.7466440000   -1.3169880000   -1.3200920000
H   -0.7872690000   -1.2476910000   1.3087730000
H   -0.7873090000   1.2476700000   1.3087720000
H   1.4998660000   0.0000210000   1.3293240000
H   1.1891600000   2.1521120000   0.1689530000
H   1.1892230000   -2.1520770000   0.1689500000
H   -1.2874480000   -2.0745140000   -0.1740630000
H   -1.2875090000   2.0744750000   -0.1740660000
H   2.4764610000   0.0000360000   -0.1293860000
H   -2.3636420000   -0.0000350000   -0.1110620000
