18
0227Nme.xyz
O   -0.7371310000   -1.6823300000   0.0000000000
C   -0.1016990000   0.3202570000   1.1908100000
C   -0.1016990000   0.3202570000   -1.1908100000
C   -0.1016990000   -1.1969810000   -1.1626660000
C   -0.1016990000   -1.1969810000   1.1626660000
N   0.5537400000   0.8382230000   0.0000000000
H   -1.1431510000   0.6802820000   1.2570760000
H   -1.1431510000   0.6802820000   -1.2570760000
H   0.9327130000   -1.5606980000   -1.1996340000
H   0.9327130000   -1.5606980000   1.1996340000
H   0.4344500000   0.6735450000   2.0736640000
H   0.4344500000   0.6735450000   -2.0736640000
H   -0.6487860000   -1.5994090000   -2.0136640000
H   -0.6487860000   -1.5994090000   2.0136640000
C   0.5851160000   2.2858530000   0.0000000000
H   -0.4259330000   2.7242760000   0.0000000000
H   1.1132180000   2.6424700000   0.8841520000
H   1.1132180000   2.6424700000   -0.8841520000
