12
0235ZNmb.xyz
C   0.4770840000   0.1578300000   0.0000000000
O   0.3630640000   1.3665490000   0.0000000000
N   -0.6066610000   -0.6590200000   0.0000000000
C   1.8273680000   -0.5215510000   0.0000000000
H   2.3778530000   -0.1916010000   0.8786420000
H   1.7647210000   -1.6077820000   -0.0000030000
H   2.3778560000   -0.1915970000   -0.8786390000
H   -0.4785580000   -1.6537570000   -0.0000010000
C   -1.9438740000   -0.1026540000   0.0000000000
H   -2.0988670000   0.5192600000   -0.8806990000
H   -2.6654910000   -0.9147800000   0.0000010000
H   -2.0988660000   0.5192620000   0.8806980000
