25
0237oct.xyz
C   1.5512170000   -0.1371630000   0.0002900000
C   2.7279770000   0.8234520000   0.0004470000
C   0.2084370000   0.5833570000   0.0000100000
C   4.0703530000   0.1473430000   0.0007210000
H   1.6241380000   -0.7917200000   0.8713370000
H   1.6244500000   -0.7918160000   -0.8706580000
H   2.7013840000   1.4904070000   0.8697600000
H   2.7016910000   1.4903140000   -0.8689460000
C   -0.9782540000   -0.3729260000   -0.0001550000
H   4.9454260000   0.8262690000   0.0008290000
H   0.1449160000   1.2376060000   -0.8754130000
H   0.1446000000   1.2376960000   0.8753440000
O   4.2300620000   -1.0415680000   0.0008240000
C   -2.3244860000   0.3410770000   -0.0004370000
C   -3.5123100000   -0.6143880000   -0.0005990000
C   -4.8509100000   0.1142400000   -0.0008890000
H   -0.9147840000   -1.0269180000   0.8749250000
H   -0.9144670000   -1.0270090000   -0.8751440000
H   -2.3880630000   0.9954590000   -0.8757710000
H   -2.3883800000   0.9955540000   0.8748030000
H   -3.4473490000   -1.2668810000   0.8739640000
H   -3.4470280000   -1.2669830000   -0.8750630000
H   -4.9452420000   0.7514640000   -0.8813080000
H   -4.9455600000   0.7515800000   0.8794120000
H   -5.6883820000   -0.5824350000   -0.0009940000
