29
0238met.xyz
C   0.0000000000   0.5504140000   0.0000000000
C   1.4073210000   1.1233590000   0.0000000000
C   1.4272960000   2.6292440000   0.0000000000
O   0.4608240000   3.3405610000   0.0000000000
H   1.9747380000   0.7862490000   0.8710930000
H   1.9747380000   0.7862490000   -0.8710930000
H   -0.5410290000   0.9243580000   -0.8716990000
H   -0.5410290000   0.9243580000   0.8716990000
C   -0.0016900000   -0.9731310000   0.0000000000
O   2.6837880000   3.1010210000   0.0000000000
C   2.8026310000   4.5211030000   0.0000000000
H   3.8669490000   4.7318770000   0.0000000000
H   2.3293950000   4.9415250000   0.8854300000
H   2.3293950000   4.9415250000   -0.8854300000
C   -1.4058810000   -1.5649750000   0.0000000000
H   0.5446880000   -1.3388500000   0.8754990000
H   0.5446880000   -1.3388500000   -0.8754990000
C   -1.4142920000   -3.0886460000   0.0000000000
C   -2.8179750000   -3.6827610000   0.0000000000
C   -2.8093520000   -5.2066900000   0.0000000000
H   -1.9521150000   -1.1996280000   -0.8752690000
H   -1.9521150000   -1.1996280000   0.8752690000
H   -0.8676400000   -3.4541620000   0.8754570000
H   -0.8676400000   -3.4541620000   -0.8754570000
H   -3.3621670000   -3.3167550000   -0.8747000000
H   -3.3621670000   -3.3167550000   0.8747000000
H   -2.2923300000   -5.5911340000   0.8804500000
H   -2.2923300000   -5.5911340000   -0.8804500000
H   -3.8192790000   -5.6152420000   0.0000000000
