9
0245thi.xyz
S   1.1819550000   0.0000000000   -0.0000040000
C   -0.0030920000   -1.2288290000   0.0000020000
C   -1.2620850000   -0.7109480000   0.0000020000
H   -2.1552580000   -1.3169390000   0.0000040000
C   -0.0030920000   1.2288290000   0.0000040000
C   -1.2620850000   0.7109480000   0.0000000000
H   0.2906870000   -2.2647920000   0.0000040000
H   -2.1552580000   1.3169390000   0.0000000000
H   0.2906870000   2.2647920000   0.0000070000
