18
0402adn.xyz
C   -1.7195570000   -0.2663710000   0.0000500000
C   -1.0622730000   1.9352890000   -0.0000360000
C   0.5412390000   0.4327530000   0.0000000000
C   -0.3614440000   -0.6207830000   0.0000640000
C   1.5526720000   -1.5074780000   -0.0001000000
C   3.0506310000   0.5383570000   0.0001150000
N   -2.0447340000   1.0272380000   0.0000170000
N   0.2472120000   1.7339090000   -0.0000440000
N   1.7790460000   -0.1549830000   -0.0000940000
N   0.2911040000   -1.8338000000   -0.0000010000
N   -2.6966050000   -1.1930360000   -0.0000370000
H   -2.4636410000   -2.1691120000   0.0004670000
H   -1.3869050000   2.9691290000   -0.0000970000
H   2.3756910000   -2.2058530000   -0.0001800000
H   -3.6546030000   -0.8939770000   -0.0000420000
H   3.6253580000   0.2834390000   -0.8883520000
H   3.6238680000   0.2858400000   0.8902380000
H   2.8404620000   1.6046360000   -0.0014700000
