14
0409clb.xyz
C   -1.1443280000   -0.2385690000   0.7379810000
C   0.1906770000   0.4708480000   0.5512350000
C   0.1261070000   1.6998750000   -0.3334040000
Cl   1.4069610000   -0.6818210000   -0.1344990000
C   -1.8397400000   -0.6407860000   -0.5563680000
H   -1.7855270000   0.4401960000   1.3082130000
H   -0.9809150000   -1.1169030000   1.3633760000
H   0.5961010000   0.7319700000   1.5262840000
H   1.0880170000   2.2069830000   -0.3610510000
H   -0.6232990000   2.3911240000   0.0575610000
H   -0.1472520000   1.4306490000   -1.3520370000
H   -2.7446290000   -1.2062450000   -0.3397540000
H   -1.1894020000   -1.2652390000   -1.1684010000
H   -2.1277180000   0.2302170000   -1.1443850000
