17
0410clp.xyz
C   -0.1895790000   -0.3259150000   0.0000000000
C   1.1559790000   0.3937330000   0.0000000000
H   -0.2673130000   -0.9716460000   -0.8771490000
H   -0.2673130000   -0.9716460000   0.8771490000
C   2.3374020000   -0.5699500000   0.0000000000
H   1.2224170000   1.0466770000   -0.8759690000
H   1.2224170000   1.0466760000   0.8759690000
C   3.6788540000   0.1526080000   0.0000000000
H   2.2682850000   -1.2216910000   0.8746560000
H   2.2682850000   -1.2216900000   -0.8746560000
H   4.5119480000   -0.5489340000   0.0000000000
H   3.7766190000   0.7890690000   -0.8805750000
H   3.7766190000   0.7890690000   0.8805750000
C   -1.3420260000   0.6558280000   0.0000000000
H   -1.3288710000   1.2879250000   0.8846450000
H   -1.3288710000   1.2879250000   -0.8846450000
Cl   -2.9234120000   -0.1852680000   0.0000000000
