22
0415dcl.xyz
Cl   3.5825670000   -0.8890550000   -0.1297670000
C   2.2711800000   0.2229210000   0.0269190000
C   2.5625120000   1.5667080000   0.2039790000
C   1.5307110000   2.4815100000   0.3169430000
C   0.2159880000   2.0507860000   0.2611600000
C   -0.0998240000   0.7041750000   0.0940120000
C   0.9485270000   -0.2141230000   -0.0315680000
Cl   0.6175270000   -1.8859250000   -0.3080070000
C   -1.5291070000   0.3023280000   0.0511480000
C   -2.0448890000   -0.6191170000   0.9605030000
C   -3.3908010000   -0.9472710000   0.9388960000
C   -4.2368850000   -0.3645930000   0.0042460000
C   -3.7313960000   0.5538010000   -0.9040720000
C   -2.3847760000   0.8888730000   -0.8772760000
H   -1.9869380000   1.6010010000   -1.5892850000
H   3.5964930000   1.8769380000   0.2479180000
H   1.7541900000   3.5298290000   0.4563550000
H   -0.5946990000   2.7592760000   0.3657990000
H   -1.3866390000   -1.0722050000   1.6898070000
H   -3.7808950000   -1.6593840000   1.6535290000
H   -5.2863010000   -0.6256420000   -0.0148140000
H   -4.3842520000   1.0088540000   -1.6364930000
