16
0431pho.xyz
P   -0.0001890000   0.3505670000   0.1628120000
O   0.8538190000   -0.6994000000   -0.6789720000
O   -1.4373110000   0.1729490000   -0.4689310000
O   0.1048200000   0.1494860000   1.6085800000
C   2.0798810000   -1.1938580000   -0.1416800000
H   2.3575090000   -2.0603840000   -0.7345600000
H   2.8608920000   -0.4363670000   -0.2224000000
H   1.9500280000   -1.4738870000   0.9017730000
C   0.4666650000   1.9660210000   -0.4377660000
H   1.5142690000   2.1394270000   -0.1971460000
H   0.3217350000   2.0249510000   -1.5138900000
H   -0.1381240000   2.7204110000   0.0602470000
C   -2.1918370000   -0.9928920000   -0.1302720000
H   -1.7186480000   -1.8784300000   -0.5537330000
H   -2.2642860000   -1.0918350000   0.9517840000
H   -3.1794140000   -0.8622950000   -0.5613630000
