26
0441pho.xyz
C   3.2845900000   2.3045240000   -0.5049190000
C   1.7946510000   -0.9026650000   2.3289720000
C   -0.3755420000   -0.4153970000   -0.5206800000
C   -0.8054980000   0.8181240000   -0.0460700000
C   -2.1592180000   1.0227600000   0.1604280000
C   -3.0460820000   -0.0013930000   -0.1143310000
C   -1.2773900000   -1.4367570000   -0.7973100000
C   -2.6278120000   -1.2311120000   -0.5936070000
P   2.2371230000   -0.0529710000   -0.1017420000
N   -4.4829550000   0.2231690000   0.1079110000
O   2.1725570000   1.4165460000   -0.6659020000
O   1.8187750000   0.1905330000   1.4062720000
O   0.9418490000   -0.7089040000   -0.7704610000
O   -5.2363640000   -0.6917360000   -0.1395560000
O   -4.8225720000   1.3082130000   0.5243170000
S   3.8120540000   -1.0701410000   -0.4079270000
H   3.4414330000   2.5185980000   0.5514920000
H   4.1795310000   1.8566480000   -0.9321170000
H   3.0262740000   3.2146770000   -1.0361360000
H   1.4779780000   -0.4924210000   3.2824350000
H   1.0817560000   -1.6585690000   1.9975930000
H   2.7868340000   -1.3423990000   2.4118140000
H   -0.9003000000   -2.3775700000   -1.1715640000
H   -3.3548650000   -2.0026820000   -0.7962570000
H   -2.5325830000   1.9668260000   0.5273860000
H   -0.0952220000   1.6058180000   0.1506900000
