32
0447pho.xyz
C   2.2188200000   2.5474780000   -0.8058780000
C   1.3589720000   3.1060020000   0.3067580000
C   2.2185150000   -2.5476130000   -0.8057570000
C   1.3584490000   -3.1058810000   0.3068460000
C   -0.4769270000   -0.0000600000   0.5183220000
C   -0.9500070000   -0.0001340000   -0.7911380000
C   -1.3570920000   0.0000370000   1.5970450000
C   -2.7195340000   0.0000890000   1.3751210000
C   -3.1791980000   0.0000430000   0.0688880000
C   -2.3174690000   -0.0000760000   -1.0116780000
P   2.1260030000   -0.0000450000   -0.1343340000
N   -4.6289200000   0.0001120000   -0.1758130000
O   1.8587480000   1.1893420000   -1.1280640000
O   1.8589770000   -1.1893870000   -1.1281730000
O   0.8490710000   -0.0001270000   0.8534540000
O   -5.0032670000   0.0001320000   -1.3274160000
O   -5.3590920000   0.0001370000   0.7902650000
S   3.7335060000   0.0000150000   0.8824120000
H   1.5786430000   4.1646440000   0.4396330000
H   1.5591900000   2.5954220000   1.2484720000
H   0.3016540000   2.9987550000   0.0641080000
H   3.2767090000   2.5681270000   -0.5436850000
H   2.0732290000   3.0909360000   -1.7359620000
H   3.2763900000   -2.5686190000   -0.5435160000
H   2.0727910000   -3.0911140000   -1.7357960000
H   1.5587190000   -2.5954240000   1.2486020000
H   1.5778920000   -4.1645800000   0.4396410000
H   0.3011640000   -2.9984190000   0.0641330000
H   -0.9505570000   0.0000600000   2.5979830000
H   -3.4250930000   0.0001590000   2.1918030000
H   -2.7191520000   -0.0001240000   -2.0136500000
H   -0.2679400000   -0.0002550000   -1.6263540000
