7
0506nit.xyz
C   1.3162240000   -0.0411860000   -0.0001550000
N   -0.1744920000   -0.0001580000   -0.0006640000
O   -0.6827210000   1.0963590000   0.0001850000
O   -0.7662930000   -1.0530620000   0.0001770000
H   1.6270610000   -1.0775240000   -0.0161360000
H   1.6458030000   0.5047640000   -0.8783410000
H   1.6433490000   0.4746070000   0.8971590000
