29
0511non.xyz
C   5.0805960000   -0.3790990000   -0.0000910000
C   3.8204560000   0.4783490000   -0.0000080000
C   2.5446650000   -0.3560660000   0.0000210000
C   1.2732670000   0.4840990000   0.0000740000
C   0.0000000000   -0.3536150000   0.0000720000
C   -1.2732670000   0.4840990000   0.0000740000
C   -2.5446650000   -0.3560660000   0.0000200000
C   -3.8204560000   0.4783490000   -0.0000190000
C   -5.0805960000   -0.3790990000   -0.0001130000
H   5.9836220000   0.2304680000   -0.0001200000
H   5.1102650000   -1.0228290000   -0.8804840000
H   5.1103520000   -1.0228750000   0.8802650000
H   3.8198770000   1.1340970000   0.8747500000
H   3.8198000000   1.1341510000   -0.8747260000
H   1.2739340000   1.1413800000   -0.8752960000
H   1.2739680000   1.1413320000   0.8754800000
H   0.0000000000   -1.0110130000   0.8753330000
H   0.0000000000   -1.0109990000   -0.8751980000
H   -1.2739330000   1.1413790000   -0.8752970000
H   -1.2739690000   1.1413330000   0.8754790000
H   -2.5442510000   -1.0137970000   0.8752440000
H   -2.5441880000   -1.0137740000   -0.8752210000
H   -3.8197930000   1.1341500000   -0.8747370000
H   -3.8198850000   1.1340980000   0.8747380000
H   -5.1103610000   -1.0228720000   0.8802450000
H   -5.1102550000   -1.0228320000   -0.8805040000
H   -5.9836220000   0.2304680000   -0.0001530000
H   2.5442480000   -1.0138000000   0.8752420000
H   2.5441910000   -1.0137700000   -0.8752230000
