32
0512dec.xyz
C   5.7269190000   0.2905550000   0.0000070000
C   4.4439510000   -0.5323320000   0.0000090000
C   3.1913630000   0.3364900000   0.0000040000
C   1.8977040000   -0.4689320000   0.0000050000
C   0.6471650000   0.4023370000   0.0000000000
C   -0.6471650000   -0.4023360000   0.0000010000
C   -1.8977040000   0.4689330000   -0.0000050000
C   -3.1913630000   -0.3364890000   -0.0000040000
C   -4.4439520000   0.5323320000   -0.0000090000
C   -5.7269180000   -0.2905570000   -0.0000070000
H   -6.6132230000   0.3430590000   -0.0000110000
H   -5.7738920000   -0.9333260000   0.8803450000
H   -5.7738910000   -0.9333340000   -0.8803540000
H   6.6132230000   -0.3430620000   0.0000100000
H   5.7738910000   0.9333320000   0.8803540000
H   5.7738930000   0.9333250000   -0.8803460000
H   4.4257960000   -1.1878880000   -0.8747120000
H   4.4257940000   -1.1878800000   0.8747360000
H   1.8810210000   -1.1260460000   0.8753560000
H   1.8810240000   -1.1260540000   -0.8753400000
H   0.6641160000   1.0594840000   -0.8752950000
H   0.6641130000   1.0594910000   0.8752890000
H   -0.6641160000   -1.0594830000   0.8752950000
H   -0.6641130000   -1.0594900000   -0.8752880000
H   -1.8810210000   1.1260470000   -0.8753560000
H   -1.8810240000   1.1260550000   0.8753400000
H   -3.2084980000   -0.9939920000   0.8752290000
H   -3.2084950000   -0.9939990000   -0.8752310000
H   -4.4257950000   1.1878790000   -0.8747370000
H   -4.4257970000   1.1878870000   0.8747120000
H   3.2084980000   0.9939920000   -0.8752290000
H   3.2084960000   0.9939990000   0.8752310000
