12
0515dim.xyz
C   0.8645470000   -0.6425630000   -0.0003950000
O   1.9397330000   -0.0898350000   0.0002060000
H   0.7661410000   -1.7405670000   -0.0002100000
N   -0.3402050000   -0.0227620000   -0.0004200000
C   -1.5805420000   -0.7592060000   0.0001710000
C   -0.4250090000   1.4211670000   0.0001680000
H   -0.9585680000   1.7692890000   0.8871160000
H   0.5822410000   1.8262940000   -0.0003370000
H   -0.9597230000   1.7698740000   -0.8858420000
H   -2.1725060000   -0.5183780000   0.8860680000
H   -2.1738520000   -0.5172980000   -0.8845130000
H   -1.3741370000   -1.8275840000   -0.0006550000
