8
0521dic.xyz
C   -0.4885230000   -0.5760120000   -0.0000010000
C   0.4885230000   0.5760130000   0.0000010000
Cl   -2.1535310000   0.0704720000   0.0000140000
Cl   2.1535310000   -0.0704720000   -0.0000140000
H   -0.3744630000   -1.1905020000   0.8875630000
H   -0.3744740000   -1.1904890000   -0.8875760000
H   0.3744740000   1.1904890000   0.8875760000
H   0.3744630000   1.1905020000   -0.8875630000
