17
0523cyc.xyz
C   -1.1462650000   0.0000000000   0.0766580000
C   0.9966980000   1.2569190000   -0.2904450000
C   0.9966980000   -1.2569190000   -0.2904440000
C   -0.3886060000   -1.2775470000   0.3708370000
C   -0.3886060000   1.2775470000   0.3708370000
C   1.7727620000   0.0000000000   0.0941840000
O   -2.2627800000   0.0000000000   -0.3754180000
H   0.8739060000   1.2857580000   -1.3764970000
H   0.8739070000   -1.2857590000   -1.3764960000
H   -0.2613240000   -1.3435200000   1.4565470000
H   -0.2613240000   1.3435210000   1.4565460000
H   1.9521420000   0.0000010000   1.1739540000
H   1.5499980000   2.1536280000   -0.0107450000
H   1.5499980000   -2.1536280000   -0.0107430000
H   -0.9906690000   -2.1232610000   0.0453470000
H   -0.9906690000   2.1232610000   0.0453470000
H   2.7501890000   0.0000000000   -0.3896800000
