21
0531mes.xyz
C   0.0000000000   1.3810740000   0.0000000000
C   1.2160820000   0.6946360000   0.0000000000
C   1.1960450000   -0.6905370000   0.0000000000
C   -0.0064680000   -1.4004760000   0.0000000000
C   -1.1960450000   -0.6905370000   0.0000000000
C   -1.2096130000   0.7058400000   0.0000000000
C   2.5128560000   1.4582650000   0.0000000000
C   0.0064670000   -2.9053300000   0.0000000000
C   -2.5193230000   1.4470650000   0.0000000000
H   0.0047040000   2.4657050000   0.0000000000
H   2.1330120000   -1.2369260000   0.0000000000
H   -2.1377150000   -1.2287790000   0.0000000000
H   3.3678280000   0.7849320000   0.0000000000
H   2.5862010000   2.1001270000   0.8786400000
H   2.5862010000   2.1001270000   -0.8786400000
H   0.5256630000   -3.2897790000   0.8786400000
H   0.5256630000   -3.2897790000   -0.8786400000
H   -1.0041430000   -3.3090910000   0.0000000000
H   -3.1118640000   1.1896520000   0.8786400000
H   -3.1118640000   1.1896520000   -0.8786400000
H   -2.3636850000   2.5241590000   0.0000000000
