19
0540ace.xyz
C   -2.5879290000   -1.0552080000   0.0036470000
C   -3.0389130000   0.2580730000   0.0148020000
C   -2.1125470000   1.2891800000   0.0121910000
C   -0.7471640000   1.0364090000   -0.0011970000
C   -0.3006260000   -0.2841070000   -0.0119040000
C   -1.2315260000   -1.3244560000   -0.0096510000
N   1.0591090000   -0.6435800000   -0.0253350000
C   2.1658560000   0.1671460000   -0.0158060000
C   3.4778270000   -0.5859470000   0.0323520000
O   2.1179010000   1.3755480000   -0.0185700000
H   1.2376240000   -1.6340660000   -0.0268060000
H   4.2581780000   0.0586900000   -0.3588060000
H   3.4467000000   -1.5149590000   -0.5346910000
H   3.7119060000   -0.8224670000   1.0707390000
H   -0.0354240000   1.8438600000   -0.0040800000
H   -0.8841780000   -2.3508860000   -0.0180350000
H   -2.4503710000   2.3166870000   0.0204240000
H   -4.0981630000   0.4723650000   0.0251770000
H   -3.2931120000   -1.8750930000   0.0053800000
