19
0546dif.xyz
C   2.4974420000   0.8835320000   0.2271120000
C   2.8924700000   -0.4464260000   0.2496710000
C   1.9763350000   -1.4599510000   0.0132550000
C   0.6605620000   -1.1300390000   -0.2446730000
C   0.2153520000   0.1868690000   -0.2439420000
C   1.1705920000   1.1673820000   -0.0118300000
N   -1.1236050000   0.5239500000   -0.4853630000
C   -2.1646880000   -0.0095340000   0.2543030000
C   -3.5283910000   0.4980870000   -0.1453330000
O   -1.9859390000   -0.8318570000   1.1151190000
F   0.7574470000   2.4423870000   -0.0392700000
F   -0.2072500000   -2.0915630000   -0.5401920000
H   -1.2973350000   1.3669230000   -1.0073210000
H   -4.2264690000   0.2904430000   0.6586970000
H   -3.8524750000   -0.0313870000   -1.0414590000
H   -3.5195780000   1.5651260000   -0.3637640000
H   2.2627510000   -2.5014200000   0.0090470000
H   3.9259660000   -0.6933150000   0.4456330000
H   3.1900650000   1.6939040000   0.3995330000
