22
0548met.xyz
C   2.0154350000   -1.7718320000   0.0039300000
C   2.7086310000   -0.5675580000   0.0100050000
C   2.0149510000   0.6350250000   0.0049690000
C   0.6203120000   0.6286030000   -0.0062530000
C   -0.0730210000   -0.5769610000   -0.0120210000
C   0.6348770000   -1.7815710000   -0.0070450000
N   -1.4774660000   -0.6642460000   -0.0231880000
C   -2.4061700000   0.3444460000   -0.0167870000
C   -3.8399760000   -0.1379500000   0.0357260000
O   -2.1269590000   1.5215020000   -0.0243580000
C   2.7420890000   1.9525850000   0.0113670000
H   -1.8440220000   -1.6014060000   -0.0208040000
H   -4.4726840000   0.6171710000   -0.4198550000
H   -4.1343460000   -0.2486290000   1.0797110000
H   -3.9826930000   -1.0926300000   -0.4676140000
H   2.4720520000   2.5388730000   0.8900100000
H   2.4790970000   2.5436130000   -0.8661960000
H   3.8206140000   1.8083610000   0.0154180000
H   0.0747650000   1.5582640000   -0.0113910000
H   0.0960280000   -2.7213710000   -0.0116680000
H   3.7906610000   -0.5645160000   0.0183990000
H   2.5557000000   -2.7087570000   0.0078200000
