18
0552flu.xyz
C   -2.1055160000   1.1858100000   -0.0577220000
C   -2.5618630000   -0.1150720000   0.0018750000
C   -1.6916600000   -1.1816880000   0.0731530000
C   -0.3224820000   -0.9557740000   0.0860550000
C   0.1625840000   0.3498320000   0.0260520000
C   -0.7400710000   1.4106660000   -0.0451270000
N   1.5313060000   0.6726730000   0.0544190000
C   2.6010430000   -0.1895290000   -0.0305260000
N   3.8228900000   0.4591890000   -0.0008480000
O   2.5103710000   -1.3890090000   -0.1556150000
F   -3.8842930000   -0.3440210000   -0.0115790000
H   1.7402000000   1.6546300000   -0.0098020000
H   4.5997370000   -0.1726860000   0.1001250000
H   3.9057800000   1.3180940000   0.5161960000
H   0.3649780000   -1.7828900000   0.1339700000
H   -0.3695990000   2.4274760000   -0.0920610000
H   -2.0859430000   -2.1870000000   0.1176180000
H   -2.8110640000   2.0021300000   -0.1144790000
