18
0554chl.xyz
C   -1.6363750000   1.2768230000   -0.0468140000
C   -2.1464250000   -0.0099180000   0.0053090000
C   -1.2934050000   -1.0978110000   0.0614560000
C   0.0816290000   -0.9152210000   0.0662600000
C   0.6064580000   0.3751690000   0.0144800000
C   -0.2663820000   1.4622730000   -0.0417910000
N   1.9807710000   0.6591490000   0.0340210000
C   3.0290730000   -0.2336450000   -0.0260060000
N   4.2659860000   0.3836330000   0.0033550000
O   2.9063730000   -1.4316090000   -0.1315270000
Cl   -3.8648690000   -0.2556270000   -0.0012810000
H   2.2168530000   1.6346860000   -0.0356770000
H   5.0271500000   -0.2645600000   0.1189300000
H   4.3676690000   1.2518990000   0.5008730000
H   0.7422650000   -1.7644270000   0.1027140000
H   0.1316800000   2.4689530000   -0.0824650000
H   -1.7027040000   -2.0972780000   0.1013250000
H   -2.3058770000   2.1237690000   -0.0906940000
