18
0556bro.xyz
C   -0.8984090000   1.3473290000   -0.0472630000
C   -1.4371060000   0.0722950000   0.0080270000
C   -0.6090000000   -1.0345550000   0.0700430000
C   0.7701080000   -0.8822210000   0.0757950000
C   1.3238080000   0.3957450000   0.0188710000
C   0.4755160000   1.5019460000   -0.0417120000
N   2.7034710000   0.6491320000   0.0385810000
C   3.7319680000   -0.2666950000   -0.0289400000
N   4.9817900000   0.3232700000   0.0013000000
O   3.5820410000   -1.4607670000   -0.1411240000
Br   -3.3175840000   -0.1522150000   -0.0032710000
H   2.9610150000   1.6194550000   -0.0286970000
H   5.7295680000   -0.3413550000   0.1109540000
H   5.1031760000   1.1871050000   0.5020730000
H   1.4112470000   -1.7461240000   0.1163070000
H   0.8957290000   2.4994930000   -0.0860550000
H   -1.0351800000   -2.0266870000   0.1144250000
H   -1.5445880000   2.2119160000   -0.0936240000
