24
0558dim.xyz
C   2.8043720000   1.2067720000   0.1654170000
C   3.3360010000   -0.0569560000   0.0092180000
C   2.5299440000   -1.1605660000   -0.1699490000
C   1.1507510000   -1.0108270000   -0.1968600000
C   0.5880320000   0.2550770000   -0.0368440000
C   1.4285080000   1.3538890000   0.1438380000
N   -0.7948090000   0.5080670000   -0.0780970000
C   -1.8149600000   -0.4198890000   0.0182150000
N   -3.0768270000   0.1156030000   -0.0699400000
O   -1.6137310000   -1.6108710000   0.1578120000
F   4.6695680000   -0.2121650000   0.0339280000
C   -3.3334350000   1.5327460000   -0.2061810000
C   -4.2137660000   -0.7447000000   0.1958230000
H   -1.0423350000   1.4805230000   -0.0524810000
H   -4.9523200000   -0.6432210000   -0.6003400000
H   -4.6866590000   -0.4859180000   1.1467910000
H   -3.8701530000   -1.7720570000   0.2381270000
H   -4.3947790000   1.6728440000   -0.3952570000
H   -2.7960940000   1.9561850000   -1.0565030000
H   -3.0803690000   2.0970140000   0.6979800000
H   0.5125210000   -1.8666450000   -0.3322860000
H   0.9994530000   2.3405600000   0.2713300000
H   2.9820860000   -2.1350710000   -0.2900360000
H   3.4611650000   2.0532730000   0.3050240000
