24
0559dim.xyz
C   -2.7903880000   1.6730550000   0.0436510000
C   -3.4817900000   0.4698660000   0.0218790000
C   -2.7342760000   -0.6889160000   -0.0126540000
C   -1.3531870000   -0.7145480000   -0.0260630000
C   -0.6774180000   0.5033740000   -0.0032320000
C   -1.4082890000   1.6955110000   0.0316060000
N   0.7187220000   0.6175270000   -0.0188920000
C   1.6492600000   -0.4071690000   -0.0145690000
N   2.9545110000   0.0142520000   -0.0736860000
O   1.3374580000   -1.5808660000   0.0293140000
F   -3.3773050000   -1.8644650000   -0.0343390000
C   4.0047210000   -0.9748560000   0.0821990000
C   3.3434940000   1.4082270000   -0.0511540000
H   1.0578930000   1.5619480000   -0.0043860000
H   4.4194360000   1.4658870000   -0.1935760000
H   3.1070230000   1.8954690000   0.9003540000
H   2.8813910000   1.9678050000   -0.8670300000
H   4.7594450000   -0.8395260000   -0.6930150000
H   3.5681690000   -1.9629010000   -0.0098760000
H   4.4852570000   -0.8858080000   1.0599140000
H   -0.8267910000   -1.6531460000   -0.0512720000
H   -0.8835960000   2.6426010000   0.0494910000
H   -4.5601410000   0.4198030000   0.0312100000
H   -3.3373980000   2.6052690000   0.0708060000
