8
0561dit.xyz
C   -1.2432600000   0.1780440000   0.0001130000
S   -0.1085690000   -1.2469300000   0.0000570000
S   1.6310990000   -0.1595490000   -0.0000730000
C   0.8408190000   1.3672260000   0.0000320000
C   -0.4949700000   1.4292380000   0.0000380000
O   -2.4269510000   0.0091110000   -0.0001040000
H   -1.0523300000   2.3538130000   -0.0000050000
H   1.4919190000   2.2299140000   -0.0000100000
