11
0562met.xyz
C   -0.6752680000   0.8372890000   0.0000620000
S   1.1108640000   1.1333110000   0.0002210000
S   1.6657050000   -0.8407630000   -0.0002170000
C   0.0485430000   -1.4371980000   0.0000150000
C   -0.9910300000   -0.5944600000   0.0000330000
O   -1.4516590000   1.7500640000   -0.0001310000
C   -2.4380380000   -0.9728470000   0.0000340000
H   -2.5619820000   -2.0531080000   -0.0000260000
H   -2.9347520000   -0.5551150000   -0.8756960000
H   -2.9347190000   -0.5552190000   0.8758320000
H   -0.0456240000   -2.5145450000   -0.0000030000
