21
0566met.xyz
C   -0.9643130000   -1.2783200000   -0.1935180000
S   -2.7615960000   -1.0696540000   -0.2072100000
S   -2.7417060000   0.9477960000   0.1468680000
C   -1.0156210000   1.1002490000   0.1896650000
C   -0.2609720000   -0.0028380000   0.0041610000
O   -0.4927340000   -2.3693910000   -0.3422840000
C   -0.5215990000   2.4898210000   0.4566350000
C   1.2180640000   -0.0171840000   -0.0060930000
C   1.9342760000   0.8918150000   -0.7830890000
C   3.3211170000   0.8807250000   -0.7845230000
C   4.0083570000   -0.0444810000   -0.0122940000
C   3.3024900000   -0.9627810000   0.7536690000
C   1.9168870000   -0.9549740000   0.7536750000
H   0.4772110000   2.4580750000   0.8863130000
H   -1.1899010000   3.0099600000   1.1417910000
H   -0.4796820000   3.0657060000   -0.4686370000
H   3.8334180000   -1.6922110000   1.3498790000
H   5.0896460000   -0.0560190000   -0.0137390000
H   3.8639940000   1.5892200000   -1.3951940000
H   1.3685590000   -1.6809570000   1.3375610000
H   1.3993520000   1.5988930000   -1.4039600000
