17
0571dim.xyz
C   1.2053340000   -0.2619660000   -0.0000010000
C   1.1367490000   1.1284740000   -0.0000020000
N   0.0000000000   1.8151950000   0.0000000000
C   -1.1367490000   1.1284740000   0.0000020000
C   -1.2053340000   -0.2619660000   0.0000010000
C   0.0000000000   -0.9510040000   0.0000000000
C   -2.5246720000   -0.9804560000   -0.0000010000
C   2.5246720000   -0.9804560000   0.0000010000
H   2.6223210000   -1.6175660000   0.8793550000
H   3.3538390000   -0.2754350000   -0.0000280000
H   2.6222990000   -1.6176120000   -0.8793230000
H   -2.6222980000   -1.6176140000   0.8793210000
H   -2.6223220000   -1.6175630000   -0.8793570000
H   -3.3538390000   -0.2754350000   0.0000310000
H   -2.0515180000   1.7124920000   0.0000030000
H   0.0000000000   -2.0367190000   0.0000000000
H   2.0515180000   1.7124920000   -0.0000030000
