26
0932tri.xyz
C   2.7570740000   1.2887390000   -0.0000010000
Si   1.4008230000   -0.0052580000   0.0000000000
C   -0.2725690000   0.8505550000   -0.0000010000
C   -1.4725710000   -0.0998370000   0.0000000000
C   -2.8175990000   0.6211740000   -0.0000010000
C   -4.0005450000   -0.3392750000   0.0000010000
H   -3.9778680000   -0.9833360000   -0.8804770000
H   -3.9778670000   -0.9833340000   0.8804800000
H   2.6908570000   1.9280960000   -0.8815520000
H   2.6908570000   1.9280970000   0.8815490000
H   -0.3246290000   1.5085450000   -0.8742400000
H   -0.3246290000   1.5085470000   0.8742360000
H   -1.4253200000   -0.7569080000   0.8744780000
H   -1.4253200000   -0.7569100000   -0.8744780000
H   -2.8689530000   1.2750030000   -0.8746630000
H   -2.8689530000   1.2750050000   0.8746600000
H   3.7435240000   0.8226250000   0.0000000000
H   -4.9513100000   0.1928230000   0.0000010000
C   1.5576730000   -1.0809260000   1.5288500000
H   1.4108240000   -0.4969460000   2.4388670000
H   0.8196740000   -1.8842700000   1.5236240000
H   2.5461360000   -1.5396000000   1.5831690000
C   1.5576740000   -1.0809290000   -1.5288490000
H   0.8196740000   -1.8842710000   -1.5236220000
H   1.4108280000   -0.4969500000   -2.4388660000
H   2.5461370000   -1.5396050000   -1.5831650000
