31
0940hex.xyz
Si   -2.2644300000   -0.2602180000   0.0068680000
O   -1.0225620000   0.6853170000   -0.5104770000
Si   0.0715480000   1.8277500000   -0.1463020000
O   1.5685460000   1.2121350000   -0.2400260000
Si   2.2824500000   -0.2555130000   -0.0023220000
C   -1.8540520000   -2.0341540000   -0.3957100000
H   -1.7156040000   -2.1647470000   -1.4700430000
H   -0.9415150000   -2.3641900000   0.1026400000
H   -2.6639030000   -2.6947100000   -0.0813300000
C   -3.8103510000   0.2559070000   -0.8953080000
H   -4.6593450000   -0.3638490000   -0.6029630000
H   -4.0623330000   1.2944630000   -0.6773480000
H   -3.6800500000   0.1608860000   -1.9738530000
C   -2.4842190000   -0.0327150000   1.8465280000
H   -2.7310650000   1.0029130000   2.0851540000
H   -3.2946490000   -0.6625810000   2.2170230000
H   -1.5800010000   -0.2944300000   2.3980730000
H   -0.0373780000   2.9309140000   -1.1116600000
H   -0.1798800000   2.3074180000   1.2287600000
C   1.8770620000   -1.3590910000   -1.4482560000
H   2.2905840000   -0.9555510000   -2.3733490000
H   2.2783460000   -2.3639910000   -1.3086990000
H   0.7955860000   -1.4376210000   -1.5695800000
C   4.1162570000   0.0268380000   0.1345990000
H   4.6471270000   -0.9151710000   0.2792250000
H   4.5029320000   0.4960260000   -0.7706070000
H   4.3484180000   0.6787030000   0.9772550000
C   1.6034270000   -0.9872800000   1.5774780000
H   2.0417680000   -1.9644420000   1.7855590000
H   0.5215330000   -1.1175020000   1.5088000000
H   1.8088760000   -0.3374370000   2.4295710000
