10
c050.xyz
C   -1.5245750000   -0.4497670000   0.0047190000
O   -0.5197440000   0.6161430000   -0.0701770000
O   1.7652230000   -0.1875730000   0.0003950000
H   -1.1612960000   -1.2372660000   -0.6456470000
H   -2.4536640000   -0.0391040000   -0.3735610000
H   -1.6168790000   -0.7901730000   1.0309910000
H   -0.7401090000   1.3996620000   0.4510660000
H   0.5071640000   0.2993130000   0.0112540000
H   2.2880320000   -0.3540530000   0.7919260000
H   2.3603630000   -0.0083320000   -0.7360810000
