21
c056.xyz
C   1.4883820000   1.0598380000   0.0005260000
C   2.6910130000   0.3837300000   0.0005720000
C   2.6995460000   -1.0064620000   -0.0000070000
C   1.5064950000   -1.7244020000   -0.0006110000
C   0.3001700000   -1.0570690000   -0.0006210000
C   0.2763010000   0.3484910000   -0.0000180000
C   -0.9609990000   1.0866680000   -0.0000220000
C   -1.0062920000   2.5716310000   -0.0003430000
O   -2.1096030000   0.5431610000   -0.0000940000
O   -2.8531160000   -1.9180420000   0.0003920000
H   1.4896980000   2.1400040000   0.0009860000
H   3.6204420000   0.9342900000   0.0010370000
H   3.6423770000   -1.5367330000   -0.0000080000
H   1.5246990000   -2.8045570000   -0.0010970000
H   -0.6131760000   -1.6339210000   -0.0011380000
H   -0.4893480000   2.9579910000   -0.8794810000
H   -0.4907360000   2.9581390000   0.8795660000
H   -2.0372300000   2.9081470000   -0.0011120000
H   -2.2299630000   -0.4583570000   0.0001410000
H   -3.3401970000   -2.2207410000   0.7733530000
H   -3.3425180000   -2.2197800000   -0.7714850000
