11
c066.xyz
O   0.1687880000   -0.7042890000   -0.4578700000
C   -0.7547390000   -0.3289110000   0.4625910000
C   -1.8950230000   0.5104470000   -0.1450760000
H   -1.2396560000   -1.1951410000   0.9707420000
H   -0.3157910000   0.2746130000   1.2884490000
H   1.4218340000   -0.1694420000   -0.1355590000
O   2.3586230000   0.2947340000   0.1156540000
H   2.3246060000   1.1239790000   -0.3612220000
H   -2.6454040000   0.7965050000   0.6020410000
H   -2.3851330000   -0.0596540000   -0.9378060000
H   -1.4811700000   1.4163640000   -0.5940110000
