19
i012.xyz
C   -3.2809340000   0.8119770000   0.0554470000
C   -2.4645300000   -0.1424550000   -0.3628080000
C   -1.2728670000   -0.5815080000   0.4239310000
N   0.0000000000   -0.1830020000   -0.2863730000
C   1.2728670000   -0.5815080000   0.4239310000
C   2.4645300000   -0.1424550000   -0.3628080000
C   3.2809330000   0.8119780000   0.0554470000
H   -4.1450340000   1.1045210000   -0.5244080000
H   -3.1269780000   1.3194210000   1.0005050000
H   -2.6532310000   -0.6591680000   -1.2981240000
H   -1.2219800000   -1.6632660000   0.5452500000
H   -1.2376930000   -0.1118180000   1.4052690000
H   0.0000000000   -0.5857070000   -1.2268680000
H   0.0000000000   0.8311610000   -0.4243520000
H   1.2219800000   -1.6632660000   0.5452510000
H   1.2376930000   -0.1118180000   1.4052690000
H   2.6532320000   -0.6591690000   -1.2981230000
H   4.1450330000   1.1045220000   -0.5244080000
H   3.1269770000   1.3194220000   1.0005040000
