32
i015.xyz
C   -1.1480000000   -1.2340100000   0.2428900000
N   0.0560560000   -0.3848780000   -0.0637270000
C   1.3397170000   -1.0936280000   0.2729740000
C   -0.0298830000   0.9915210000   0.5672460000
C   2.5482240000   -0.4251590000   -0.3574380000
C   3.8202090000   -1.1961840000   -0.0160850000
C   -0.2035360000   2.0750500000   -0.4819720000
C   -0.3313100000   3.4470100000   0.1693470000
C   -2.4345960000   -0.6548320000   -0.3171770000
C   -3.6042650000   -1.5903260000   -0.0244180000
H   -1.1836350000   -1.3363900000   1.3280180000
H   -0.9556360000   -2.2163350000   -0.1874890000
H   0.0611500000   -0.2399040000   -1.0767760000
H   1.2400300000   -2.1162870000   -0.0889240000
H   1.4034290000   -1.1192430000   1.3611420000
H   0.8820540000   1.1457010000   1.1395640000
H   -0.8649120000   0.9745530000   1.2647350000
H   2.6397190000   0.6067310000   -0.0145070000
H   2.4142930000   -0.3930050000   -1.4424040000
H   4.6849390000   -0.7259300000   -0.4773800000
H   3.7649870000   -2.2231670000   -0.3756820000
H   3.9859290000   -1.2205090000   1.0605120000
H   -1.0917340000   1.8594180000   -1.0813110000
H   0.6560530000   2.0582060000   -1.1580520000
H   -0.4518360000   4.2186140000   -0.5869380000
H   0.5548460000   3.6875250000   0.7561660000
H   -1.1972040000   3.4863290000   0.8299500000
H   -2.3296060000   -0.5187990000   -1.3973210000
H   -2.6323280000   0.3279900000   0.1134680000
H   -4.5281750000   -1.1804000000   -0.4246350000
H   -3.7360970000   -1.7284260000   1.0484870000
H   -3.4480200000   -2.5691770000   -0.4767290000
