18
i020.xyz
C   1.1875320000   1.1482390000   -0.0000010000
C   -0.0276610000   1.8252420000   0.0000000000
C   -1.2174640000   1.1202490000   0.0000010000
C   -1.2447710000   -0.2775400000   0.0000000000
C   -0.0323560000   -0.9571070000   -0.0000010000
C   1.1421590000   -0.2269610000   -0.0000010000
N   2.4267720000   -0.9782360000   0.0000010000
C   -2.5516330000   -1.0148720000   0.0000000000
H   2.1254810000   1.6890160000   -0.0000010000
H   -0.0348100000   2.9056330000   0.0000000000
H   -2.1552360000   1.6607020000   0.0000010000
H   -0.0163550000   -2.0410330000   -0.0000010000
H   2.5107260000   -1.5749120000   0.8271180000
H   3.2206560000   -0.3342210000   -0.0000450000
H   2.5106870000   -1.5749810000   -0.8270690000
H   -2.4067040000   -2.0922960000   0.0000000000
H   -3.1383450000   -0.7468770000   -0.8783060000
H   -3.1383450000   -0.7468770000   0.8783060000
