21
i029.xyz
C   -2.3282170000   -1.1500800000   0.0000000000
C   -2.7673640000   0.1895670000   0.0000000000
C   -1.8613010000   1.2122270000   0.0000000000
C   -0.4723320000   0.9476140000   0.0000000000
C   -0.0359460000   -0.4037870000   0.0000000000
C   -0.9925580000   -1.4457040000   0.0000000000
C   0.4852870000   1.9918620000   0.0000000000
C   1.8256960000   1.7315410000   0.0000000000
C   2.2798990000   0.3966870000   -0.0000010000
C   1.3609620000   -0.6058810000   0.0000000000
N   1.8422820000   -2.0083070000   0.0000010000
H   -3.0552420000   -1.9499040000   -0.0000010000
H   -3.8268690000   0.4017170000   0.0000000000
H   -2.1926480000   2.2421150000   0.0000000000
H   -0.6928430000   -2.4873810000   -0.0000010000
H   0.1311490000   3.0142960000   0.0000010000
H   2.5462680000   2.5356190000   0.0000000000
H   3.3424660000   0.1852400000   -0.0000020000
H   2.8635910000   -2.0360030000   -0.0000010000
H   1.5117010000   -2.5159110000   -0.8262680000
H   1.5117050000   -2.5159080000   0.8262730000
