21
i034.xyz
C   1.5695740000   -0.6609890000   0.1156390000
C   1.4849180000   0.8373410000   -0.1020860000
C   0.2203130000   1.5306450000   0.4115900000
C   -1.0266980000   1.1951370000   -0.4135350000
C   -1.7681390000   -0.0861410000   -0.0070460000
C   -0.8863360000   -1.2364220000   0.4540050000
N   0.3541310000   -1.4007320000   -0.4013320000
H   1.6354710000   -0.9192630000   1.1715340000
H   2.4319790000   -1.0817700000   -0.3984200000
H   1.5994640000   1.0511720000   -1.1683900000
H   2.3660040000   1.2566420000   0.3852880000
H   0.3975450000   2.6033110000   0.3530040000
H   0.0599360000   1.3110910000   1.4709430000
H   -0.7426740000   1.1441620000   -1.4696040000
H   -1.7403720000   2.0149570000   -0.3535660000
H   -2.4028370000   -0.4182810000   -0.8295880000
H   -2.4385270000   0.1232310000   0.8272760000
H   -1.4252720000   -2.1804230000   0.4202020000
H   -0.5196570000   -1.0900680000   1.4672830000
H   0.5867310000   -2.3920570000   -0.4614020000
H   0.1515010000   -1.0950050000   -1.3566350000
