17
i039.xyz
C   0.6760500000   -1.2547340000   -0.2405980000
C   -0.7691740000   -1.2006050000   0.2176310000
N   -1.3779450000   0.0000000000   -0.3153040000
C   -0.7691730000   1.2006060000   0.2176310000
C   0.6760510000   1.2547330000   -0.2405980000
N   1.3771600000   0.0000000000   0.2222680000
H   0.7402260000   -1.2596950000   -1.3267420000
H   1.2158500000   -2.1036400000   0.1726740000
H   -0.8032330000   -1.2519930000   1.3178670000
H   -1.2794230000   -2.0810610000   -0.1681770000
H   -2.3821430000   0.0000010000   -0.2058970000
H   -0.8032320000   1.2519930000   1.3178670000
H   -1.2794210000   2.0810620000   -0.1681770000
H   1.2158510000   2.1036400000   0.1726740000
H   0.7402260000   1.2596940000   -1.3267420000
H   2.3446100000   -0.0000010000   -0.1036480000
H   1.4136560000   0.0000000000   1.2451600000
