7
i048.xyz
N   -0.7715720000   0.0000000000   -0.1219990000
N   0.6577290000   0.0000000000   0.0183900000
H   -1.1372660000   0.8274380000   0.3401850000
H   -1.1372670000   -0.8274380000   0.3401850000
H   1.0129270000   -0.0000040000   0.9818010000
H   1.0292550000   0.8209830000   -0.4684500000
H   1.0292560000   -0.8209790000   -0.4684580000
