7
i059.xyz
H   1.7111410000   -1.0712930000   -0.0864140000
C   1.3441060000   -0.0493770000   -0.0013830000
C   -0.2109100000   0.0012620000   -0.0026590000
O   -0.7971740000   -1.0999010000   0.0005040000
H   1.7293370000   0.5559280000   -0.8234990000
H   1.7121540000   0.3937880000   0.9261650000
O   -0.6968010000   1.1511850000   0.0004960000
