8
i066.xyz
C   0.0000000000   0.5326660000   0.0000000000
O   -1.2804860000   0.1701040000   0.0000000000
C   0.9929320000   -0.6634470000   0.0000000000
H   0.3120040000   1.1625500000   0.8841800000
H   0.3120040000   1.1625500000   -0.8841800000
H   2.0430350000   -0.3380960000   0.0000000000
H   0.8096260000   -1.2815760000   -0.8831850000
H   0.8096260000   -1.2815760000   0.8831850000
