15
i077.xyz
C   0.7857390000   1.2031170000   -0.0035410000
C   -0.5964660000   1.1870830000   -0.0134750000
C   -1.3343100000   0.0009170000   -0.0165690000
C   -0.5968080000   -1.1866080000   -0.0135860000
C   0.7844100000   -1.2027920000   -0.0035120000
C   1.5752870000   0.0003890000   0.0061430000
O   2.8365520000   -0.0012950000   0.0148520000
C   -2.8402220000   -0.0007750000   0.0212010000
H   1.3241450000   2.1442430000   -0.0086650000
H   -1.1331820000   2.1339060000   -0.0222520000
H   -1.1338450000   -2.1333610000   -0.0223650000
H   1.3230720000   -2.1438220000   -0.0084560000
H   -3.2394180000   -0.1088430000   1.0363690000
H   -3.2552040000   -0.8205380000   -0.5711430000
H   -3.2437640000   0.9307940000   -0.3822820000
