9
i078.xyz
C   0.1491140000   -0.8409800000   0.0000000000
O   1.4344260000   -1.2122900000   0.0000000000
C   0.0000000000   0.6903850000   0.0000000000
O   -1.3837720000   1.0958870000   0.0000000000
H   -0.4527230000   -1.1890470000   0.8840080000
H   -0.4527230000   -1.1890470000   -0.8840080000
H   0.5087970000   1.0801950000   -0.8890280000
H   0.5087970000   1.0801950000   0.8890280000
H   -1.4120630000   2.0525020000   0.0000000000
