15
i086.xyz
C   -2.5116040000   -0.1288910000   0.2538200000
C   -1.1479270000   -0.6828900000   -0.0375830000
C   -0.0616670000   0.1426380000   -0.2208350000
C   1.2902140000   -0.5288310000   -0.5050830000
C   2.3315820000   -0.1110920000   0.5306190000
O   -0.0401280000   1.4129540000   -0.1730320000
H   -2.4254080000   0.9563860000   0.3355100000
H   -2.9410750000   -0.5008080000   1.1938670000
H   -3.2519550000   -0.3422430000   -0.5300450000
H   -1.0165170000   -1.7562820000   -0.1078000000
H   1.6228270000   -0.1972360000   -1.4945740000
H   1.1868900000   -1.6166800000   -0.5313220000
H   2.3676870000   0.9771930000   0.5741270000
H   3.3293660000   -0.4942000000   0.2987250000
H   2.0456260000   -0.4753610000   1.5201420000
