19
i093.xyz
C   -1.2306160000   1.2053760000   -0.0000040000
C   0.1325200000   1.3848070000   -0.0000030000
C   0.9955820000   0.2779770000   0.0000010000
C   0.4686230000   -1.0145450000   0.0000050000
C   -0.9074120000   -1.1951130000   0.0000040000
C   -1.7281560000   -0.0901680000   -0.0000010000
N   -3.1997010000   -0.2844320000   0.0000030000
O   2.2948540000   0.5632300000   0.0000010000
C   3.2371730000   -0.5012200000   -0.0000060000
H   -1.8915500000   2.0635880000   -0.0000080000
H   0.5653920000   2.3747980000   -0.0000060000
H   1.1123330000   -1.8800420000   0.0000090000
H   -1.3140630000   -2.1993580000   0.0000070000
H   -3.6361320000   0.1318550000   0.8269590000
H   -3.4311110000   -1.2800270000   -0.0000480000
H   -3.6361460000   0.1319430000   -0.8269010000
H   4.2140980000   -0.0310890000   -0.0000200000
H   3.1249740000   -1.1145890000   -0.8951220000
H   3.1249970000   -1.1145810000   0.8951190000
