17
i094.xyz
C   -1.3022430000   1.2188830000   0.0000000000
C   0.0851450000   1.2162290000   -0.0000020000
C   0.7396440000   0.0007510000   0.0000000000
C   0.0817670000   -1.2155720000   0.0000040000
C   -1.3034730000   -1.2171240000   0.0000050000
C   -1.9544450000   0.0024800000   0.0000020000
N   -3.4410630000   -0.0016070000   0.0000030000
N   2.2268150000   -0.0007060000   -0.0000040000
O   2.7643530000   -1.0788170000   -0.0000010000
O   2.7667310000   1.0761370000   -0.0000050000
H   -1.8457170000   2.1553530000   -0.0000020000
H   0.6546120000   2.1341080000   -0.0000040000
H   0.6506650000   -2.1338030000   0.0000050000
H   -1.8501830000   -2.1516480000   0.0000070000
H   -3.8137070000   -0.4766000000   -0.8276170000
H   -3.8092680000   0.9528600000   -0.0000440000
H   -3.8137070000   -0.4765190000   0.8276690000
