12
i110.xyz
C   0.0000000000   0.0000000000   -2.2637350000
C   0.0000000000   0.0000000000   0.5955790000
C   0.0000000000   1.1933750000   -1.5457280000
C   0.0000000000   -1.1933750000   -1.5457280000
C   0.0000000000   1.1943080000   -0.1608030000
C   0.0000000000   -1.1943080000   -0.1608030000
H   0.0000000000   0.0000000000   -3.3459400000
H   0.0000000000   2.1398270000   -2.0761180000
H   0.0000000000   -2.1398270000   -2.0761180000
H   0.0000000000   2.1318830000   0.3808180000
H   0.0000000000   -2.1318830000   0.3808180000
S   0.0000000000   0.0000000000   2.3264910000
