7
i118.xyz
C   0.5159780000   0.0134200000   0.0000000000
C   -1.0588510000   0.0094380000   0.0000000000
O   -1.5785150000   1.1283030000   0.0000000000
O   -1.5192620000   -1.1369900000   0.0000000000
F   1.0694870000   1.2355300000   0.0000040000
F   1.0230040000   -0.6215190000   -1.0768320000
F   1.0230050000   -0.6215270000   1.0768280000
