15
i125.xyz
C   -1.7030360000   1.0192730000   -0.0000750000
C   -0.6197110000   1.8900430000   -0.0000140000
C   0.6761330000   1.4025140000   0.0000370000
C   0.9036390000   0.0298830000   0.0000180000
C   -0.1592120000   -0.8623570000   -0.0000450000
C   -1.4344150000   -0.3325120000   -0.0000940000
N   -2.5755110000   -1.2855800000   0.0000640000
Cl   2.5057840000   -0.5779620000   0.0000350000
H   -2.7172860000   1.3975940000   -0.0001270000
H   -0.7927260000   2.9565230000   -0.0000390000
H   1.5195650000   2.0780920000   0.0000560000
H   0.0254220000   -1.9289340000   -0.0000640000
H   -2.5611820000   -1.8860870000   0.8291410000
H   -2.5576320000   -1.8904390000   -0.8257660000
H   -3.4663060000   -0.7834070000   -0.0032030000
