15
i141.xyz
C   -1.9960640000   -0.4070610000   -0.0053230000
C   -0.6702310000   -0.7928860000   -0.0033230000
C   -2.4109430000   0.9074950000   -0.0031920000
N   -3.0263290000   -1.4785650000   0.0044070000
C   0.2902270000   0.2090040000   0.0006760000
C   -0.0869720000   1.5478640000   0.0032580000
Br   2.1068760000   -0.2610840000   0.0000360000
C   -1.4293620000   1.8906910000   0.0008840000
H   -0.3747610000   -1.8344850000   -0.0055190000
H   -3.4605010000   1.1733350000   -0.0054250000
H   -2.8308000000   -2.1894440000   -0.7053830000
H   -3.9525870000   -1.0926860000   -0.1927430000
H   -3.0726680000   -1.9483870000   0.9132480000
H   0.6724510000   2.3166860000   0.0051090000
H   -1.7174120000   2.9322410000   0.0007290000
