14
i178.xyz
C   -0.2046170000   1.2159930000   0.0000330000
C   -0.8028510000   -0.0205730000   0.0000060000
C   1.1845840000   1.2217650000   0.0000120000
C   1.8878910000   0.0234880000   -0.0000190000
C   1.2232020000   -1.1956310000   -0.0000370000
C   -0.1661870000   -1.2353650000   -0.0000340000
O   -2.2853050000   -0.0812790000   0.0000200000
H   -0.7761120000   2.1348060000   0.0000660000
H   1.7106340000   2.1654500000   0.0000300000
H   2.9684480000   0.0413060000   -0.0000280000
H   1.7792800000   -2.1219600000   -0.0000620000
H   -0.7197440000   -2.1633930000   -0.0000560000
H   -2.7060860000   0.2678910000   0.8049950000
H   -2.7061070000   0.2680750000   -0.8048650000
