16
i179.xyz
C   -0.0001290000   -0.0543020000   -0.1328160000
C   -1.2666800000   -0.8654390000   -0.2047560000
C   -0.0005960000   1.1904680000   -0.9819050000
C   1.2661450000   -0.8657270000   -0.2066070000
O   0.0010650000   0.4525660000   1.3858670000
H   -1.2512520000   -1.6921550000   0.5023230000
H   -1.3397920000   -1.2773540000   -1.2113410000
H   -2.1529110000   -0.2510780000   -0.0406300000
H   0.8917410000   1.7941610000   -0.8173780000
H   -0.8933160000   1.7936310000   -0.8174610000
H   -0.0004700000   0.8810020000   -2.0275180000
H   2.1528590000   -0.2514650000   -0.0447140000
H   1.3371680000   -1.2785480000   -1.2129640000
H   1.2517240000   -1.6918590000   0.5011790000
H   -0.7928080000   0.9622820000   1.6194580000
H   0.7960960000   0.9608570000   1.6186100000
