41
i184.xyz
C   -1.5495560000   -0.7059240000   0.0971930000
N   -0.3252110000   -0.0259350000   0.6539010000
C   0.1587180000   1.0856270000   -0.2408030000
C   0.7530510000   -1.0148670000   1.0291450000
C   -2.7807560000   0.1831100000   0.0987490000
C   1.3828270000   1.8047690000   0.2949290000
C   1.3924230000   -1.7144540000   -0.1549950000
C   -4.0275580000   -0.6250830000   -0.2628530000
C   1.6808650000   3.0518270000   -0.5376280000
C   2.4548150000   -2.7033460000   0.3280810000
C   -5.2767860000   0.2459480000   -0.2980300000
C   2.9292850000   3.7747350000   -0.0484370000
C   3.1232080000   -3.4279690000   -0.8332550000
H   -1.7177820000   -1.5871610000   0.7160030000
H   -1.2964980000   -1.0371440000   -0.9081310000
H   -0.6158490000   0.4174890000   1.5279960000
H   -0.6732720000   1.7796840000   -0.3381110000
H   0.3441370000   0.6403210000   -1.2170330000
H   0.2785750000   -1.7341820000   1.6958940000
H   1.4954980000   -0.4647750000   1.6038480000
H   -2.6712030000   1.0016330000   -0.6137320000
H   -2.9155380000   0.6293670000   1.0898670000
H   2.2542070000   1.1472260000   0.2771860000
H   1.2186020000   2.0959130000   1.3377650000
H   1.8611690000   -0.9875230000   -0.8220310000
H   0.6405270000   -2.2526420000   -0.7358000000
H   -4.1562340000   -1.4317290000   0.4620560000
H   -3.8777810000   -1.0990880000   -1.2356140000
H   0.8216790000   3.7249050000   -0.4987980000
H   1.8047670000   2.7633150000   -1.5841310000
H   1.9930640000   -3.4282840000   1.0020420000
H   3.2056840000   -2.1671120000   0.9130900000
H   -6.1545700000   -0.3439610000   -0.5521110000
H   -5.1801160000   1.0384650000   -1.0400460000
H   -5.4556730000   0.7115470000   0.6712580000
H   3.1252250000   4.6611020000   -0.6476260000
H   3.8049890000   3.1286830000   -0.1107060000
H   2.8165220000   4.0902370000   0.9888890000
H   3.8765590000   -4.1256870000   -0.4744350000
H   3.6132790000   -2.7224160000   -1.5043140000
H   2.3932970000   -3.9928720000   -1.4131510000
