16
i205.xyz
O   1.9756540000   1.1302710000   -0.4821070000
C   0.9319770000   1.6749790000   -0.0972900000
O   0.6738490000   2.8545520000   0.1846750000
C   -0.2835580000   0.7093230000   0.0046910000
C   -0.1637520000   -0.6690580000   0.0138050000
C   -1.5795760000   1.2173850000   0.0001070000
N   1.1552580000   -1.3341870000   0.0988520000
C   -1.2484680000   -1.5304320000   -0.0040020000
C   -2.6893210000   0.3859300000   -0.0106140000
O   1.7366590000   -1.2716080000   1.1543040000
O   1.5004110000   -1.9977380000   -0.8548180000
C   -2.5264430000   -0.9946690000   -0.0159780000
H   -1.6697700000   2.2958220000   0.0018210000
H   -1.0832180000   -2.5995520000   -0.0069770000
H   -3.6854970000   0.8101860000   -0.0202270000
H   -3.3860600000   -1.6517130000   -0.0273240000
