15
i222.xyz
C   2.4763970000   0.7518580000   0.0064480000
C   2.1007570000   -0.6408170000   -0.0011900000
C   1.5528510000   1.7738620000   0.0017030000
C   0.1773710000   1.5276430000   -0.0114420000
C   -0.2221840000   0.1925790000   -0.0226500000
C   -1.6788840000   -0.1435850000   -0.0019020000
C   0.6776400000   -0.8557560000   -0.0183550000
O   2.9362610000   -1.5775890000   0.0050350000
F   -2.4770280000   0.9244320000   -0.1878790000
F   -2.0734090000   -0.6929440000   1.1667060000
F   -2.0291680000   -1.0351550000   -0.9491190000
H   3.5383690000   0.9681630000   0.0165990000
H   1.9020540000   2.8016100000   0.0066190000
H   -0.5440150000   2.3298440000   -0.0186010000
H   0.3262730000   -1.8805950000   -0.0279480000
