14
i228.xyz
O   -2.7865770000   -1.1279690000   -0.0001490000
C   -2.2609680000   0.0000000000   -0.0000160000
O   -2.7865770000   1.1279690000   0.0001450000
C   -0.7111060000   0.0000000000   -0.0000320000
C   -0.0020630000   -1.1958170000   -0.0000730000
C   -0.0020630000   1.1958170000   0.0000440000
C   1.3883330000   -1.2092940000   -0.0000490000
C   1.3883330000   1.2092950000   0.0000590000
C   2.0536820000   0.0000000000   0.0000130000
F   3.4107670000   0.0000000000   0.0000380000
H   -0.5763380000   -2.1128770000   -0.0001150000
H   -0.5763370000   2.1128770000   0.0000990000
H   1.9580650000   -2.1292170000   -0.0000780000
H   1.9580640000   2.1292180000   0.0001170000
