26
i235.xyz
C   -1.1220960000   1.2029780000   -0.0000050000
C   -1.8270560000   0.0092270000   0.0000020000
C   0.2700200000   1.2194730000   -0.0000100000
C   -1.0997310000   -1.1769780000   0.0000070000
C   -3.3758810000   -0.0061470000   0.0000030000
C   0.2862340000   -1.1645150000   0.0000190000
C   1.0040290000   0.0354040000   0.0000120000
C   2.5334130000   0.0026960000   0.0000000000
C   3.1472060000   1.4037290000   -0.0002690000
C   3.0342450000   -0.7339450000   1.2509430000
C   3.0341970000   -0.7344060000   -1.2506890000
O   -3.9146180000   1.1159630000   0.0000110000
O   -3.8910020000   -1.1395810000   -0.0000160000
H   -1.6966820000   2.1204070000   -0.0000040000
H   0.7775990000   2.1749800000   -0.0000090000
H   -1.6594440000   -2.1034770000   0.0000020000
H   0.8196310000   -2.1090590000   0.0000180000
H   4.2363060000   1.3244130000   -0.0000480000
H   2.8489780000   1.9697270000   0.8832310000
H   2.8493120000   1.9692420000   -0.8841900000
H   4.1267530000   -0.7719200000   1.2608890000
H   2.6574490000   -1.7556190000   1.2856160000
H   2.6967790000   -0.2227810000   2.1536460000
H   4.1267020000   -0.7725170000   -1.2605910000
H   2.6968200000   -0.2234920000   -2.1535670000
H   2.6572710000   -1.7560440000   -1.2850410000
