16
i240.xyz
C   2.3775120000   1.1837000000   0.0239680000
C   0.9856520000   1.2082200000   0.0002720000
C   3.0539300000   -0.0271550000   0.0276890000
C   2.3327790000   -1.2187450000   0.0092530000
C   0.9476220000   -1.1936100000   -0.0103250000
C   0.2698900000   0.0213200000   -0.0167660000
S   -1.5452400000   0.0118370000   -0.0311830000
N   -2.0062380000   -0.8557390000   1.1600540000
O   -1.8463590000   -0.6438440000   -1.2890650000
O   -1.8748570000   1.4300640000   0.0526910000
H   2.9333710000   2.1134200000   0.0382450000
H   0.4339300000   2.1387640000   -0.0060590000
H   4.1363680000   -0.0468850000   0.0462700000
H   2.8570820000   -2.1665110000   0.0138020000
H   0.3678440000   -2.1080810000   -0.0117780000
H   -1.9956660000   -0.2620690000   1.9845220000
