21
i244.xyz
C   -3.0361800000   1.1192550000   -0.0002370000
C   -3.3916540000   -0.2437460000   0.0001430000
C   -1.7013590000   1.4875370000   -0.0004510000
C   1.0723760000   -0.8899930000   -0.0002300000
N   0.0000000000   -1.7203590000   -0.0001120000
C   0.7161170000   0.5011910000   0.0001640000
C   2.4368940000   -1.2398150000   -0.0003120000
C   -1.0723760000   -0.8899930000   0.0002310000
C   -0.7161170000   0.5011910000   -0.0002090000
C   -2.4368940000   -1.2398150000   0.0003510000
C   1.7013590000   1.4875370000   0.0004380000
C   3.0361800000   1.1192550000   0.0002890000
C   3.3916540000   -0.2437460000   -0.0000710000
H   -3.8104380000   1.8760010000   -0.0003190000
H   -4.4420570000   -0.5129250000   0.0002500000
H   -1.4269750000   2.5376770000   -0.0005900000
H   2.7183510000   -2.2860770000   -0.0005120000
H   -2.7183510000   -2.2860770000   0.0005100000
H   1.4269750000   2.5376770000   0.0005790000
H   3.8104380000   1.8760010000   0.0003950000
H   4.4420570000   -0.5129250000   -0.0001640000
