8
i255.xyz
O   -1.7993560000   0.0514110000   -0.0000770000
C   -0.6612160000   -0.7828300000   0.0001070000
C   0.6409770000   0.0621240000   0.0000620000
O   1.7068850000   -0.5712090000   -0.0001030000
O   0.4429100000   1.3008720000   0.0000710000
H   -0.6535440000   -1.4280540000   -0.8839220000
H   -0.6537260000   -1.4279110000   0.8842190000
H   -1.3748050000   0.9316140000   -0.0004340000
