15
i266.xyz
C   0.9098560000   1.3020740000   0.0002980000
C   -0.4560600000   0.8638270000   0.0000460000
C   1.9736780000   0.4184830000   0.0000110000
C   1.7729430000   -0.9611670000   -0.0001670000
C   0.4536700000   -1.4254790000   -0.0000940000
C   -0.6321240000   -0.5721720000   0.0001330000
C   -2.0453620000   -1.0737790000   0.0001680000
O   -1.4429710000   1.6518130000   -0.0003670000
H   1.0801860000   2.3728130000   0.0004950000
H   2.9869630000   0.8102080000   0.0000590000
H   2.6070090000   -1.6503720000   -0.0003750000
H   0.2692520000   -2.4977620000   -0.0000700000
H   -2.0807360000   -2.1653120000   -0.0000960000
H   -2.5893970000   -0.6975090000   -0.8700410000
H   -2.5891140000   -0.6972910000   0.8705920000
