7
i277.xyz
O   1.5785150000   1.1283030000   -0.0000030000
C   1.0588500000   0.0094370000   0.0000000000
O   1.5192630000   -1.1369910000   0.0000030000
C   -0.5159790000   0.0134210000   0.0000000000
F   -1.0230050000   -0.6215290000   -1.0768270000
F   -1.0694860000   1.2355290000   -0.0000060000
F   -1.0230040000   -0.6215170000   1.0768340000
