19
n176.xyz
C   -0.2364200000   0.6548020000   -0.5531140000
C   -1.3798620000   -0.2496220000   -0.1275700000
O   -0.9276980000   -1.5053040000   -0.0039800000
C   0.4948690000   -1.5234650000   -0.2216600000
C   0.9763500000   -0.0844610000   0.0201910000
O   -2.5010170000   0.0925830000   0.0952430000
O   -0.4095170000   1.9646930000   -0.1152790000
C   1.1047190000   0.1901020000   1.5170100000
C   2.2737790000   0.2243880000   -0.7086430000
H   -0.1863510000   0.6119320000   -1.6519660000
H   0.6851100000   -1.8475230000   -1.2473590000
H   0.9250540000   -2.2429610000   0.4716140000
H   -1.3506240000   2.0945800000   0.0544880000
H   1.9234560000   -0.3967810000   1.9342080000
H   0.1903280000   -0.0704360000   2.0532090000
H   1.3043220000   1.2455070000   1.6908130000
H   3.0885300000   -0.3952270000   -0.3306180000
H   2.5480440000   1.2686270000   -0.5590210000
H   2.1773780000   0.0460510000   -1.7805100000
