21
n178.xyz
C   1.9069720000   -1.6500440000   -0.4589130000
C   0.9732070000   -1.0347500000   0.5772680000
N   -0.0339370000   -0.1703860000   -0.0142280000
C   -1.2518600000   -0.7985380000   -0.5129140000
C   0.0674330000   1.1847190000   -0.1028570000
C   -2.3661990000   -0.7858750000   0.5244950000
C   1.3396310000   1.8256180000   0.4132290000
O   -0.8285460000   1.8620320000   -0.5736540000
H   2.6180730000   -2.3269490000   0.0141430000
H   2.4641830000   -0.8729850000   -0.9819030000
H   1.3419540000   -2.2137130000   -1.2010050000
H   1.5440120000   -0.4768180000   1.3165190000
H   0.4522340000   -1.8234120000   1.1249550000
H   -1.0027010000   -1.8207750000   -0.8018710000
H   -1.5672410000   -0.2620980000   -1.4053210000
H   -3.2594090000   -1.2744670000   0.1360760000
H   -2.6160550000   0.2429320000   0.7783140000
H   -2.0599820000   -1.3072810000   1.4324260000
H   1.3249460000   2.8671200000   0.1099050000
H   2.2336660000   1.3415850000   0.0227400000
H   1.3771320000   1.7765150000   1.5020020000
