12
n191.xyz
C   -1.2816040000   -0.3508710000   -0.0000700000
C   -1.2000950000   1.1049820000   0.0000330000
C   -0.0004710000   1.6990400000   0.0000340000
N   1.1679640000   0.9828640000   0.0000070000
C   1.2151570000   -0.4012300000   0.0001040000
N   -0.0315520000   -0.9853380000   -0.0000480000
O   2.2494500000   -1.0191860000   -0.0000200000
O   -2.2963050000   -1.0031390000   -0.0000290000
H   -2.1185640000   1.6665880000   0.0000560000
H   0.1167610000   2.7732920000   0.0000430000
H   2.0644850000   1.4405070000   0.0000630000
H   -0.0406400000   -1.9959850000   -0.0000940000
