9
n196.xyz
C   0.7484830000   -0.7034880000   0.0001760000
C   -0.5101910000   0.1561630000   0.0000240000
N   -1.6608490000   -0.5716700000   0.0000610000
O   -0.4784850000   1.3581160000   0.0000360000
H   0.7612080000   -1.3372550000   0.8902370000
F   1.8562540000   0.0835460000   -0.0001690000
H   0.7610920000   -1.3378370000   -0.8894750000
H   -1.6663040000   -1.5750930000   -0.0007420000
H   -2.5382170000   -0.0810240000   -0.0004100000
