      44
31357
 P -0.018600000  0.962400000  0.862700000
 O  1.247300000  1.239900000 -0.109900000
 O -1.287700000  1.205600000 -0.114800000
 O  0.002500000 -0.639500000  1.107000000
 O -0.032100000  1.782400000  2.121600000
 C  3.565300000  1.335400000 -0.690400000
 C -3.605300000  1.238400000 -0.704100000
 C  0.035000000 -2.958400000  0.522400000
 C  2.550800000  1.007600000  0.395800000
 C -2.586400000  0.938200000  0.386000000
 C  0.016700000 -1.528000000  0.002600000
 C  4.995700000  1.091800000 -0.217500000
 C -5.032600000  0.986400000 -0.226200000
 C  0.066900000 -3.972000000 -0.618000000
 C  6.003200000  1.379100000 -1.319200000
 C -6.049400000  1.328600000 -1.303500000
 C  0.128700000 -5.397900000 -0.094500000
 H  3.351000000  0.728500000 -1.579100000
 H  3.440500000  2.379500000 -1.003500000
 H -3.491600000  2.280500000 -1.028100000
 H -3.385900000  0.624700000 -1.586700000
 H  0.906300000 -3.094100000  1.175400000
 H -0.844200000 -3.127000000  1.156800000
 H  2.640900000 -0.039300000  0.702500000
 H  2.710200000  1.643000000  1.273400000
 H -2.765000000  1.569700000  1.262700000
 H -2.650500000 -0.110600000  0.693100000
 H  0.903700000 -1.335200000 -0.608700000
 H -0.872200000 -1.360000000 -0.613300000
 H  5.108600000  0.051100000  0.107900000
 H  5.215100000  1.728000000  0.647800000
 H -5.239300000  1.589800000  0.665400000
 H -5.149100000 -0.065400000  0.059600000
 H  0.938500000 -3.787200000 -1.256600000
 H -0.825000000 -3.855400000 -1.244600000
 H  5.831300000  0.733600000 -2.186400000
 H  5.938100000  2.421200000 -1.648000000
 H  7.020800000  1.199600000 -0.958500000
 H -5.981200000  2.383800000 -1.586600000
 H -5.890100000  0.721000000 -2.200000000
 H -7.064500000  1.139100000 -0.940500000
 H  1.028700000 -5.556000000  0.508300000
 H -0.744500000 -5.626500000  0.524800000
 H  0.149300000 -6.107100000 -0.927900000
