18
test5016.xyz
S   1.4597680000   0.0000010000   -0.1701740000
O   1.8782410000   1.2482570000   -0.7432660000
C   -2.3704200000   -1.2060050000   0.0360960000
O   1.8782410000   -1.2482530000   -0.7432710000
C   -3.0582170000   0.0000000000   0.0823930000
C   -0.3116060000   0.0000000000   -0.0856940000
C   -2.3704210000   1.2060050000   0.0360970000
C   -0.9860090000   -1.2118630000   -0.0497420000
C   -0.9860090000   1.2118630000   -0.0497410000
C   1.9533860000   -0.0000030000   1.5343380000
H   -2.9123150000   -2.1411400000   0.0585820000
H   -4.1378040000   -0.0000010000   0.1461030000
H   -2.9123160000   2.1411400000   0.0585840000
H   -0.4273400000   -2.1360750000   -0.1105890000
H   -0.4273400000   2.1360750000   -0.1105870000
H   1.5715800000   -0.8984510000   2.0112090000
H   1.5715810000   0.8984420000   2.0112130000
H   3.0415930000   -0.0000040000   1.5280970000
