11
test4009.xyz
C   -0.0507370000   -1.9205650000   1.2637310000
H   0.2536130000   -2.9705170000   1.2715870000
H   -1.1392660000   -1.8818740000   1.2969200000
H   0.3393610000   -1.4416030000   2.1589650000
C   0.4720940000   -1.2685340000   0.0000000000
H   1.5579520000   -1.2396010000   0.0000000000
C   -0.0507370000   -1.9205650000   -1.2637310000
H   -1.1392660000   -1.8818740000   -1.2969200000
H   0.3393610000   -1.4416030000   -2.1589650000
H   0.2536130000   -2.9705170000   -1.2715870000
I   -0.0507370000   0.8393500000   0.0000000000
