27
test1013.xyz
C   -1.0859070000   1.5092740000   0.0208480000
O   -2.0774520000   2.2015950000   0.0008730000
N   0.1687250000   2.0741570000   -0.1116210000
H   0.1572660000   3.0763920000   -0.2186670000
C   1.3610500000   1.3947240000   -0.1258120000
C   2.5699410000   2.2550290000   -0.2848570000
H   2.5047170000   2.8112150000   -1.2212730000
H   3.4766070000   1.6622130000   -0.2887660000
H   2.6189810000   2.9755310000   0.5329530000
C   1.3321510000   0.0563300000   -0.0024780000
Br   2.8817470000   -1.0038440000   -0.0064580000
C   0.0631360000   -0.6670990000   0.1411040000
O   -0.0084340000   -1.8681010000   0.2300980000
N   -1.0933040000   0.1382900000   0.1737090000
C   -2.4002430000   -0.5469950000   0.3355020000
C   -3.1633740000   -0.0317950000   1.5515870000
H   -3.6126660000   0.9400430000   1.3648110000
H   -2.4986070000   0.0465030000   2.4116880000
H   -3.9481600000   -0.7423420000   1.8061780000
H   -2.1234220000   -1.5816110000   0.5211630000
C   -3.1953770000   -0.4986470000   -0.9694910000
H   -3.4403070000   0.5367850000   -1.2060990000
C   -4.4657940000   -1.3380680000   -0.8929540000
H   -5.1800210000   -0.9177260000   -0.1857620000
H   -4.2420900000   -2.3595780000   -0.5802720000
H   -4.9539570000   -1.3863930000   -1.8650520000
H   -2.5538520000   -0.8781040000   -1.7679560000
