33
test3003.xyz
C   5.4360090000   -1.5023470000   -0.5434710000
C   6.2821040000   -0.6125390000   0.1037970000
C   5.7553020000   0.5222660000   0.7047510000
C   4.3916740000   0.7667170000   0.6563180000
C   3.5316620000   -0.1216980000   0.0108000000
C   4.0717550000   -1.2599590000   -0.5875790000
C   2.0752600000   0.1396920000   -0.0363540000
C   1.1585810000   -0.9002700000   0.1145540000
C   -0.2042350000   -0.6549620000   0.0761120000
C   -0.6813280000   0.6390360000   -0.1164080000
C   0.2303290000   1.6818800000   -0.2708380000
C   1.5887630000   1.4356370000   -0.2302200000
C   -2.1401660000   0.9568940000   -0.1621820000
O   -2.5239840000   2.0895660000   -0.3413870000
C   -3.1283980000   -0.1748950000   0.0249640000
C   -4.5606080000   0.3142700000   -0.0372890000
C   -5.5486640000   -0.8131210000   0.1541240000
O   -5.2502910000   -1.9549250000   0.3306900000
O   -6.8485710000   -0.4513160000   0.1149640000
H   5.8402650000   -2.3848500000   -1.0204110000
H   7.3460080000   -0.8024250000   0.1395420000
H   6.4069520000   1.2160200000   1.2183530000
H   3.9839360000   1.6425110000   1.1442550000
H   3.4198070000   -1.9461120000   -1.1126350000
H   1.5180780000   -1.9057450000   0.2886640000
H   -0.8915660000   -1.4798590000   0.2063060000
H   -0.1517910000   2.6812290000   -0.4283050000
H   2.2883340000   2.2485840000   -0.3730990000
H   -2.9545590000   -0.9384960000   -0.7360310000
H   -2.9369320000   -0.6687530000   0.9798500000
H   -4.7390060000   1.0761990000   0.7249080000
H   -4.7582180000   0.8015470000   -0.9948050000
H   -6.9367820000   0.4939450000   -0.0371920000
