20
test3004.xyz
O   -2.2930320000   -1.4950910000   0.0260330000
C   -2.2640040000   -0.2850280000   0.0160390000
N   -1.1088740000   0.4510760000   0.0176780000
C   1.9408560000   -1.6909800000   -0.0107660000
C   0.5927130000   -1.3507450000   -0.0002880000
C   0.2140650000   -0.0127380000   0.0072170000
C   2.9184870000   -0.7121480000   -0.0138720000
C   2.5483500000   0.6273430000   -0.0063950000
C   1.2115380000   0.9715530000   0.0042380000
O   0.7768020000   2.2697830000   0.0117720000
C   -3.5285470000   0.5439220000   -0.0334100000
H   -1.2010650000   1.4539180000   0.0152320000
H   3.9656660000   -0.9790500000   -0.0218530000
H   3.2985820000   1.4092610000   -0.0087280000
H   1.5275940000   2.8670620000   0.0089530000
H   -4.3051230000   0.0176790000   0.5134840000
H   -3.3985840000   1.5436030000   0.3763350000
H   -3.8444280000   0.6312070000   -1.0730900000
H   2.2186720000   -2.7353510000   -0.0162400000
H   -0.1701110000   -2.1104660000   0.0031510000
