27
test1030.xyz
Cl   0.2089970000   -0.0000080000   2.6953480000
C   -0.6752230000   -0.0000030000   1.1795320000
Cl   -2.3921820000   -0.0000030000   1.6837710000
C   -0.3631410000   -1.1226680000   0.1458050000
Cl   -0.5405880000   -2.7646290000   0.7155650000
C   1.0047370000   -0.7821450000   -0.5333180000
H   0.9124670000   -1.1908780000   -1.5405700000
C   2.4241440000   -1.1346420000   -0.0164590000
H   2.5490180000   -2.1545390000   0.3363650000
C   3.2457460000   -0.7347620000   -1.2570670000
H   3.2303930000   -1.3360330000   -2.1571470000
C   3.2457450000   0.7347650000   -1.2570670000
H   3.2303920000   1.3360370000   -2.1571460000
C   2.4241440000   1.1346440000   -0.0164580000
H   2.5490170000   2.1545400000   0.3363670000
C   2.8186740000   0.0000000000   0.9343830000
H   3.8868960000   0.0000000000   1.1248010000
H   2.3006540000   0.0000000000   1.8721290000
O   4.4297600000   0.0000020000   -1.0164740000
C   1.0047370000   0.7821470000   -0.5333160000
H   0.9124660000   1.1908830000   -1.5405670000
C   -0.3631410000   1.1226680000   0.1458100000
Cl   -0.5405870000   2.7646260000   0.7155770000
C   -1.3494160000   0.6639250000   -0.9373300000
Cl   -2.1153180000   1.7216430000   -2.0123480000
C   -1.3494160000   -0.6639220000   -0.9373330000
Cl   -2.1153170000   -1.7216350000   -2.0123560000
