38
test1007.xyz
C   1.6283490000   1.2532780000   0.0143280000
C   1.1829720000   2.6463520000   0.3848020000
H   0.3278560000   2.6263700000   1.0612550000
H   1.9942380000   3.1414240000   0.9197070000
C   0.8158540000   3.4664370000   -0.8552400000
H   -0.0133440000   3.0051140000   -1.3913050000
H   1.6631030000   3.5252150000   -1.5380890000
H   0.5212870000   4.4787060000   -0.5812810000
C   2.9861720000   0.9780870000   -0.1156030000
H   3.7056800000   1.7558180000   0.1087260000
C   3.4164500000   -0.2690690000   -0.5339160000
H   4.4747850000   -0.4721150000   -0.6284230000
C   2.4939310000   -1.2589080000   -0.8355500000
H   2.8447440000   -2.2276060000   -1.1612860000
C   1.1274120000   -1.0291000000   -0.7125380000
C   0.1044000000   -2.0856990000   -1.0516320000
H   -0.3682240000   -1.8231810000   -2.0023960000
H   -0.7012650000   -2.0337330000   -0.3198630000
C   0.6455640000   -3.5071080000   -1.1235250000
H   1.1472490000   -3.7814980000   -0.1945920000
H   1.3544080000   -3.6360880000   -1.9413370000
H   -0.1711970000   -4.2082340000   -1.2857320000
C   0.7137130000   0.2342700000   -0.2698800000
N   -0.6875060000   0.5011130000   -0.1230650000
C   -1.5165460000   0.7187390000   -1.3019870000
H   -0.8360270000   0.7792360000   -2.1534840000
H   -2.0488680000   1.6668190000   -1.1835770000
O   -2.4247810000   -0.3245850000   -1.4943440000
C   -3.7839790000   0.0686860000   -1.5278800000
H   -3.9979560000   0.6716880000   -2.4150560000
H   -4.0444600000   0.6254780000   -0.6271700000
H   -4.3711590000   -0.8448100000   -1.5757960000
C   -1.3098220000   0.6094950000   1.0871530000
O   -2.4659680000   0.9616690000   1.1911890000
C   -0.5071460000   0.2586250000   2.3323830000
Cl   -0.2896770000   -1.5080120000   2.4540330000
H   -1.0852980000   0.5776470000   3.1913610000
H   0.4835540000   0.7009680000   2.3409870000
