15
test2027.xyz
C   -1.7591980000   -0.7522700000   0.1527340000
C   -1.7591940000   0.7522720000   -0.1527350000
C   -0.4323600000   -1.2900090000   -0.3764100000
C   -0.4323590000   1.2900040000   0.3764240000
O   1.4898570000   0.3474470000   -1.1960260000
O   1.4898780000   -0.3474440000   1.1960130000
S   0.7722580000   0.0000000000   -0.0000010000
H   -1.8188210000   -0.9089480000   1.2310180000
H   -2.6029130000   -1.2630510000   -0.3065800000
H   -1.8188040000   0.9089520000   -1.2310190000
H   -2.6029120000   1.2630560000   0.3065710000
H   -0.0880130000   -2.2062740000   0.0941900000
H   -0.4379320000   -1.3979500000   -1.4591420000
H   -0.0880080000   2.2062760000   -0.0941620000
H   -0.4379370000   1.3979300000   1.4591580000
