16
test5007.xyz
C   -3.4438120000   -0.0000010000   0.8904940000
O   -2.7195880000   -0.0000010000   -0.3394120000
C   1.4073510000   0.0000010000   0.0225710000
C   -1.3776730000   0.0000000000   -0.1893020000
C   0.7120440000   -1.2086070000   -0.0293470000
C   -0.6767430000   1.2029610000   -0.1333010000
C   -0.6767420000   -1.2029620000   -0.1333010000
C   0.7120430000   1.2086070000   -0.0293460000
Cl   -1.5673200000   2.6675330000   -0.2044060000
Cl   1.5598180000   2.6959310000   0.0339540000
Cl   3.1167790000   0.0000010000   0.1504090000
Cl   1.5598190000   -2.6959300000   0.0339540000
Cl   -1.5673180000   -2.6675340000   -0.2044060000
H   -4.4959980000   -0.0000040000   0.6241840000
H   -3.2081680000   -0.8940740000   1.4693550000
H   -3.2081720000   0.8940760000   1.4693520000
