12
test1006.xyz
C   -1.9216820000   -0.5500710000   0.0000070000
C   -0.6886870000   0.3291230000   -0.0000080000
H   -0.6587870000   0.9583070000   -0.8878260000
H   -0.6587630000   0.9583090000   0.8878080000
O   0.4146580000   -0.5833810000   -0.0000200000
H   -1.9159290000   -1.1885520000   0.8875080000
H   -1.9159210000   -1.1885980000   -0.8874620000
O   -3.0149410000   0.3397760000   -0.0000250000
H   -3.8350710000   -0.1557610000   0.0001960000
N   1.6524230000   0.0224310000   -0.0000200000
O   1.6801630000   1.2202160000   0.0000180000
O   2.5550860000   -0.7534900000   0.0000160000
