22
test2011.xyz
C   -1.2090710000   1.3385490000   -0.0000910000
C   -0.6255280000   -0.9939820000   -0.0000020000
C   -2.5503510000   1.0139070000   -0.0000050000
C   -1.9683290000   -1.3293000000   0.0000870000
C   -0.2364410000   0.3408140000   -0.0000950000
C   -2.9309210000   -0.3252410000   0.0000840000
C   1.1903620000   0.7489460000   -0.0002020000
C   4.1819930000   -1.2867140000   0.0001650000
C   3.4222960000   0.0178040000   -0.0000060000
O   1.5700030000   1.8906590000   -0.0001240000
O   -4.2592030000   -0.5937370000   0.0001660000
O   2.0264130000   -0.2991550000   -0.0000880000
H   -0.8898920000   2.3719310000   -0.0001620000
H   0.1260910000   -1.7700420000   -0.0000010000
H   -3.3180650000   1.7745630000   -0.0000080000
H   -2.2735780000   -2.3689400000   0.0001580000
H   3.9375520000   -1.8735970000   0.8843540000
H   3.9376790000   -1.8737510000   -0.8839580000
H   5.2533590000   -1.0915140000   0.0002240000
H   3.6456070000   0.6215250000   -0.8799010000
H   3.6454700000   0.6216810000   0.8798150000
H   -4.4059850000   -1.5426850000   0.0002270000
