20
test2029.xyz
C   -0.5526250000   -1.5300350000   1.6670940000
C   -2.3845680000   -0.4886080000   -1.0811560000
C   -0.4018840000   2.3621350000   0.7481830000
C   -0.3404410000   0.1024730000   -0.0725390000
C   1.1709210000   -0.1804290000   -0.3085640000
O   -0.7114470000   -0.1866950000   1.2302100000
O   -0.9758720000   -0.6680060000   -1.0134800000
O   -0.6037570000   1.4330830000   -0.3117830000
F   1.4313660000   -1.4862620000   -0.3682590000
F   1.8958110000   0.3271070000   0.6936950000
F   1.5875870000   0.3715690000   -1.4378360000
H   -1.1642750000   -1.6291830000   2.5592400000
H   0.4882210000   -1.7385340000   1.9156450000
H   -0.8918870000   -2.2316840000   0.9050840000
H   -2.7459240000   -1.2330240000   -1.7838690000
H   -2.6280110000   0.5099900000   -1.4384120000
H   -2.8429100000   -0.6503730000   -0.1045030000
H   -0.5375910000   3.3419920000   0.2998170000
H   0.6026730000   2.2872890000   1.1615350000
H   -1.1329760000   2.2115240000   1.5393730000
