33
test2017.xyz
C   0.8603180000   -0.8438610000   1.2877070000
C   0.6565760000   -0.5622570000   -1.0734570000
C   -0.5161080000   -0.7165880000   1.4216480000
C   -0.7164000000   -0.4385800000   -0.9456150000
C   1.4689010000   -0.7698870000   0.0403670000
C   -1.3198950000   -0.5173570000   0.3079880000
C   -3.2803450000   0.8902220000   -0.1634770000
C   -3.5383660000   -1.5935430000   -0.2315010000
C   3.4058590000   1.4735310000   0.7347810000
C   5.1301610000   0.2787710000   -0.6455430000
C   2.9625640000   -0.8671240000   -0.1151850000
C   -2.8293320000   -0.4214070000   0.4417930000
C   3.6386250000   0.4835400000   -0.4016790000
O   -3.7009450000   1.0330280000   -1.2774400000
O   -3.1259330000   1.9172260000   0.6899800000
H   1.4710720000   -1.0018580000   2.1685840000
H   1.1093790000   -0.5004170000   -2.0563560000
H   -0.9681640000   -0.7754640000   2.4041390000
H   -1.3294900000   -0.2746330000   -1.8244010000
H   -3.3279250000   -1.5983770000   -1.2991960000
H   -3.1888090000   -2.5305740000   0.1985130000
H   -4.6176080000   -1.5228450000   -0.1019960000
H   3.8192640000   1.0814020000   1.6678680000
H   2.3443720000   1.6639110000   0.8916370000
H   3.8957510000   2.4252530000   0.5274440000
H   5.6075310000   -0.1306470000   0.2477900000
H   5.3081150000   -0.4151900000   -1.4678180000
H   5.6231970000   1.2215900000   -0.8832930000
H   3.3996300000   -1.2889920000   0.7944060000
H   3.1983110000   -1.5565590000   -0.9299190000
H   -3.0724280000   -0.3874080000   1.5041110000
H   3.1901980000   0.8928310000   -1.3126680000
H   -3.3827320000   2.7231740000   0.2238810000
