20
test0013.xyz
C   2.3035280000   -1.4085950000   0.4844510000
C   1.5008990000   -0.4321910000   -0.3173070000
O   1.5294840000   0.7890150000   0.2445980000
C   0.6887730000   1.7954320000   -0.3146250000
C   -0.6885370000   1.7954680000   0.3144880000
O   -1.5292880000   0.7890710000   -0.2447250000
C   -1.5011170000   -0.4320230000   0.3174480000
O   -0.8840280000   -0.6894980000   1.3151470000
O   0.8834040000   -0.6897570000   -1.3147320000
C   -2.3032550000   -1.4085540000   -0.4846490000
H   1.7020200000   -1.6794750000   1.3532590000
H   3.2262710000   -0.9549750000   0.8371770000
H   2.5043060000   -2.2931370000   -0.1104150000
H   0.6143440000   1.6636300000   -1.3934740000
H   1.1820860000   2.7399340000   -0.0917040000
H   -0.6141500000   1.6637340000   1.3933500000
H   -1.1818010000   2.7399750000   0.0914860000
H   -3.2258270000   -0.9550140000   -0.8379250000
H   -1.7012660000   -1.6795040000   -1.3531030000
H   -2.5043110000   -2.2930420000   0.1102020000
