27
test1052.xyz
C   0.5307090000   1.4765480000   0.1597870000
N   -0.7948940000   1.8429560000   0.0036350000
H   -0.9541920000   2.8321130000   0.1153830000
C   -1.8624690000   0.9844630000   -0.0848980000
C   -3.1984830000   1.6293710000   -0.2347810000
H   -3.9792980000   0.8853370000   -0.3413400000
H   -3.1986270000   2.2770480000   -1.1123900000
H   -3.4150170000   2.2455810000   0.6395600000
C   -1.6113440000   -0.3303550000   -0.0010990000
Cl   -2.8508490000   -1.5198630000   -0.0372510000
C   -0.2404940000   -0.8281020000   0.1939290000
N   0.7872650000   0.1207270000   -0.0102390000
C   2.2206250000   -0.3563640000   -0.1246820000
C   2.2731520000   -1.6427570000   -0.9640120000
H   1.8801670000   -2.5069020000   -0.4457440000
H   3.3160390000   -1.8315160000   -1.2123340000
H   1.7252480000   -1.5122380000   -1.8986330000
C   2.7751560000   -0.5892020000   1.2769390000
H   2.7571670000   0.3386780000   1.8480440000
H   3.8085930000   -0.9301620000   1.2054330000
H   2.1942680000   -1.3497390000   1.7962800000
C   3.0704840000   0.6760300000   -0.8813110000
H   3.3053140000   1.5500030000   -0.2881840000
H   2.5674080000   0.9977260000   -1.7943470000
H   3.9996020000   0.1864960000   -1.1673350000
O   1.3560820000   2.3203000000   0.4160050000
O   -0.0101870000   -1.9713420000   0.4959790000
