22
test1033.xyz
Cl   -2.4604780000   0.6771060000   -1.8234680000
C   -1.0713450000   0.3139710000   -0.8273430000
C   -1.0601520000   -1.0829770000   -0.1428080000
Cl   -0.9732920000   -2.4299580000   -1.2819690000
Cl   -2.4192120000   -1.3656480000   0.9431690000
C   0.2844430000   -0.7867660000   0.5866200000
C   1.2198170000   -0.4965330000   -0.6195060000
H   1.5556090000   -1.4403540000   -1.0373960000
C   0.2919440000   0.2842420000   -1.5964750000
H   0.1344840000   -0.2304930000   -2.5428110000
C   0.9686980000   1.6111070000   -1.7617160000
H   0.5591860000   2.3971770000   -2.3810550000
C   2.0938120000   1.6945090000   -1.0639820000
H   2.7556070000   2.5478230000   -1.0292620000
C   2.4069840000   0.4315260000   -0.3184680000
H   2.5693730000   0.5864230000   0.7460590000
Cl   3.9605460000   -0.2676020000   -0.9109890000
Cl   0.8678470000   -2.0245130000   1.6745580000
C   -0.0731400000   0.5457060000   1.2295710000
C   -0.8770430000   1.1933730000   0.3938490000
Cl   -1.4700490000   2.7711650000   0.5262200000
Cl   0.5723820000   1.1035950000   2.6940100000
