16
test5003.xyz
C   3.1475710000   -0.4839800000   0.0000000000
O   2.2325160000   0.5866540000   0.0000000000
C   -1.8188060000   -0.1200780000   0.0000000000
C   0.9084990000   0.2851590000   0.0000000000
C   -0.9789590000   -1.2089170000   0.0000000000
C   0.0364660000   1.3738590000   0.0000000000
C   0.3988720000   -1.0079940000   0.0000000000
C   -1.3299940000   1.1750680000   0.0000000000
F   -3.1477420000   -0.3141940000   0.0000000000
H   4.1378030000   -0.0390420000   0.0000000000
H   3.0292640000   -1.1051080000   0.8911950000
H   3.0292630000   -1.1051080000   -0.8911950000
H   -1.3971840000   -2.2053590000   0.0000000000
H   0.4556610000   2.3700680000   0.0000000000
H   1.0536640000   -1.8657480000   0.0000000000
H   -2.0208080000   2.0061120000   0.0000000000
