38
test1059.xyz
C   -1.2392010000   1.3404960000   -0.1245750000
C   -0.3558500000   0.2125810000   -0.2063430000
C   1.0304810000   0.4027380000   -0.3004400000
C   1.5120390000   1.7351050000   -0.3809020000
C   0.6743480000   2.8001240000   -0.3176590000
C   -0.7263390000   2.6448030000   -0.1664270000
N   -1.4841810000   3.7657980000   -0.0776860000
C   -2.6857420000   1.1517370000   0.0210260000
C   -0.9040490000   -1.1522220000   -0.2049870000
N   1.9218610000   -0.6376640000   -0.3837690000
C   -3.2139400000   -0.2356220000   0.1052770000
C   -2.3647480000   -1.3318840000   0.0020020000
C   3.2919640000   -0.5905860000   -0.0845100000
C   3.8033320000   0.2021510000   0.9437740000
C   4.1605380000   -1.4139820000   -0.8000840000
C   5.1601390000   0.1880720000   1.2252920000
C   5.5130430000   -1.4353230000   -0.5002650000
C   6.0235730000   -0.6275380000   0.5067140000
C   -2.8832670000   -2.6228570000   0.0800650000
C   -4.5810400000   -0.4291320000   0.2864900000
C   -5.0908150000   -1.7115980000   0.3697090000
C   -4.2400610000   -2.8104860000   0.2671710000
H   -5.2196430000   0.4398650000   0.3578580000
H   -6.1520650000   -1.8629790000   0.5137430000
H   -4.6423260000   -3.8123120000   0.3330510000
H   -2.2033240000   -3.4583700000   -0.0071640000
H   1.0761520000   3.8028610000   -0.3991170000
H   2.5697210000   1.8983580000   -0.5276040000
H   -2.4851700000   3.6808890000   -0.0216380000
H   -1.0465970000   4.6630740000   -0.1669520000
O   -3.4734610000   2.0879260000   0.0893670000
O   -0.2084140000   -2.1469010000   -0.3752910000
H   1.4998190000   -1.5468500000   -0.5243070000
H   3.1320040000   0.8102380000   1.5349680000
H   3.7625800000   -2.0299020000   -1.5958910000
H   6.1721930000   -2.0796490000   -1.0662840000
H   5.5410240000   0.8080180000   2.0257960000
H   7.0804400000   -0.6378520000   0.7331470000
