20
test1055.xyz
P   -1.3625260000   -0.1850770000   0.1554940000
O   -2.2424820000   -1.3130670000   -0.5034810000
C   -3.6382360000   -1.3682690000   -0.1931330000
H   -4.0143800000   -2.2948110000   -0.6145230000
H   -4.1504790000   -0.5201280000   -0.6452290000
H   -3.7834590000   -1.3646040000   0.8863270000
C   0.2263200000   -0.6024400000   -0.6917360000
C   1.4888560000   -0.1276400000   0.0560920000
Cl   1.4288930000   1.6144740000   0.3682450000
Cl   2.9031580000   -0.4670740000   -0.9897110000
Cl   1.6830390000   -1.0180110000   1.5614800000
H   0.2830730000   -1.6962650000   -0.7041720000
O   0.1431040000   -0.0618840000   -1.9742960000
H   0.8709450000   -0.3997050000   -2.5056410000
O   -1.9121650000   1.1218070000   -0.5295620000
C   -1.8707500000   2.4020740000   0.1060710000
H   -1.6455570000   2.2938560000   1.1654670000
H   -2.8484360000   2.8587250000   -0.0238870000
H   -1.1110870000   3.0072080000   -0.3826730000
O   -1.3205070000   -0.1381140000   1.6133280000
