29
test0001.xyz
C   -4.1699210000   -0.5321790000   0.8035160000
C   -3.0106570000   -0.7034880000   -0.1272690000
O   -2.8987610000   -0.1933620000   -1.2080330000
O   -2.0694490000   -1.4950980000   0.4221230000
C   -0.8316710000   -1.6326050000   -0.2654570000
C   0.1665260000   -0.5701120000   0.1686300000
C   1.5675910000   -0.9724590000   -0.2270950000
O   2.4590970000   -0.0012060000   0.3066470000
C   3.7611700000   -0.2013410000   0.0349090000
C   4.6120920000   0.8801730000   0.6315080000
O   4.1568100000   -1.1353820000   -0.6037950000
O   -0.1045790000   0.6657090000   -0.4914480000
C   -0.9435430000   1.5353120000   0.0995190000
O   -1.4262440000   1.3602450000   1.1849880000
C   -1.2096170000   2.7063060000   -0.7940570000
H   -4.4508010000   -1.4835530000   1.2486450000
H   -5.0036630000   -0.0887210000   0.2701510000
H   -3.8449440000   0.1356770000   1.6023090000
H   -0.4583780000   -2.6188150000   0.0056400000
H   -0.9899700000   -1.5802730000   -1.3426370000
H   0.1026720000   -0.4231810000   1.2476570000
H   1.8136510000   -1.9552740000   0.1769300000
H   1.6726840000   -1.0110040000   -1.3127220000
H   4.3088720000   1.8450870000   0.2285990000
H   4.4602900000   0.9112510000   1.7090940000
H   5.6541530000   0.6863940000   0.4028410000
H   -1.8601100000   2.3593120000   -1.5977840000
H   -1.7062290000   3.4890940000   -0.2311070000
H   -0.2850520000   3.0691200000   -1.2367000000
