26
test2010.xyz
C   0.5075150000   1.9080840000   0.3397520000
C   -2.2722720000   1.2455300000   -0.6926800000
C   1.8606890000   2.1727890000   0.3970500000
C   -3.6373900000   1.0267070000   -0.7777970000
C   0.9734340000   -0.3767460000   -0.1558070000
C   -3.3618680000   -1.0136750000   0.4872490000
C   0.0370440000   0.6254340000   0.0593920000
C   -1.4168210000   0.3648320000   -0.0300640000
C   2.3447500000   -0.1342960000   -0.1044280000
C   2.7960910000   1.1634350000   0.1774030000
C   -4.1562790000   -0.1062530000   -0.1831890000
C   -2.0068480000   -0.7550400000   0.5472700000
C   3.3014990000   -1.2445350000   -0.3531580000
O   4.4966940000   -1.1733610000   -0.3191380000
O   4.1160650000   1.4191380000   0.2326230000
O   2.6687070000   -2.4052330000   -0.6375540000
F   -5.4702060000   -0.3401260000   -0.2585940000
F   -1.2431600000   -1.6264260000   1.2157200000
H   -0.1976710000   2.7066560000   0.5325630000
H   -1.8454780000   2.1172720000   -1.1708960000
H   2.2097090000   3.1730540000   0.6239570000
H   -4.2932010000   1.7068670000   -1.3007640000
H   0.6427610000   -1.3789900000   -0.3825490000
H   -3.7803790000   -1.8923830000   0.9547110000
H   4.2556620000   2.3475630000   0.4362500000
H   3.3599040000   -3.0630220000   -0.7808030000
