30
test1045.xyz
P   -1.2011920000   0.4701950000   -0.0573110000
S   -2.8473890000   1.4397790000   -0.0799950000
O   0.0432240000   1.1128920000   -0.7879790000
C   0.4985200000   2.4284050000   -0.4279910000
H   0.6968640000   2.4446350000   0.6452170000
H   -0.2951510000   3.1402470000   -0.6562330000
C   1.7545700000   2.7023380000   -1.2173070000
H   1.5579180000   2.6357010000   -2.2860880000
H   2.5248950000   1.9802900000   -0.9503430000
H   2.1227250000   3.7020440000   -0.9908330000
S   -0.6279030000   0.0867740000   1.9097800000
C   0.7704190000   -1.0692860000   1.6899920000
H   0.4580090000   -1.8882280000   1.0454010000
H   0.9317750000   -1.4638330000   2.6903600000
S   2.3449600000   -0.4184120000   1.0917730000
C   2.3789110000   -1.0826270000   -0.5988450000
H   1.6133820000   -0.5885110000   -1.1922430000
H   2.1533280000   -2.1473770000   -0.5473290000
C   3.7652850000   -0.8624330000   -1.1857990000
H   4.5252280000   -1.3773840000   -0.5996950000
H   4.0199250000   0.1967820000   -1.2125400000
H   3.8008310000   -1.2410830000   -2.2065580000
O   -1.1336490000   -0.9336910000   -0.7942680000
C   -2.1700830000   -1.9047350000   -0.5754340000
H   -3.1156470000   -1.4838880000   -0.9165830000
H   -2.2479760000   -2.1005580000   0.4968030000
C   -1.7974170000   -3.1506240000   -1.3422820000
H   -0.8449530000   -3.5475240000   -0.9930130000
H   -1.7132530000   -2.9313710000   -2.4050350000
H   -2.5625390000   -3.9129300000   -1.2025750000
