16
test5005.xyz
C   -3.4531800000   -0.5434650000   -0.0000050000
O   -2.1502280000   -1.0831650000   0.0000040000
C   1.1735630000   1.3881850000   -0.0000010000
C   -1.1080650000   -0.2200270000   0.0000030000
C   -0.0889380000   1.9519430000   0.0000000000
C   0.1574080000   -0.8071810000   0.0000020000
C   -1.2359360000   1.1650960000   0.0000020000
C   1.2732510000   0.0021010000   0.0000000000
Cl   2.8452590000   -0.7333850000   -0.0000010000
H   -4.1320800000   -1.3903620000   -0.0000070000
H   -3.6283680000   0.0629550000   0.8913190000
H   -3.6283580000   0.0629520000   -0.8913320000
H   2.0651880000   1.9966600000   -0.0000020000
H   -0.1891580000   3.0287180000   -0.0000010000
H   0.2431650000   -1.8837870000   0.0000030000
H   -2.2065940000   1.6358250000   0.0000030000
